292

C     21.9550000000   15.4030000000   29.1370000000
C     22.5300000000   14.4530000000   28.0730000000
C     23.3550000000   15.0600000000   26.9270000000
C     24.3810000000   16.0560000000   27.4920000000
C     23.7460000000   17.0780000000   28.4500000000
C     22.9500000000   16.4720000000   29.6170000000
H     23.7760000000   14.2560000000   26.3110000000
H     23.2400000000   13.8080000000   28.6050000000
H     21.0690000000   15.9900000000   28.8650000000
H     21.6350000000   14.8710000000   30.0410000000
H     25.0880000000   15.4750000000   28.0970000000
H     25.0010000000   16.5050000000   26.7080000000
H     24.5480000000   17.6780000000   28.8970000000
H     23.1910000000   17.7400000000   27.7740000000
H     23.7070000000   16.0030000000   30.2570000000
H     22.4150000000   17.1990000000   30.2400000000
H     22.6520000000   15.6470000000   26.3230000000
N     21.5090000000   13.4960000000   27.6500000000
H     21.0700000000   13.5770000000   26.7410000000
C     21.1590000000   12.3600000000   28.3490000000
H     20.7200000000   11.5280000000   27.7680000000
O     21.2100000000   12.3700000000   29.5660000000
C     23.1830000000   20.4660000000   23.0760000000
H     22.5070000000   20.4980000000   22.2180000000
H     23.7930000000   21.3730000000   23.1020000000
H     23.7450000000   19.5280000000   23.0800000000
S     22.0260000000   20.4400000000   24.4640000000
C     21.4440000000   22.1450000000   24.3280000000
H     21.9860000000   22.7270000000   23.5780000000
H     20.3610000000   22.1380000000   24.1800000000
H     21.6330000000   22.5580000000   25.3220000000
O     22.9920000000   20.4160000000   25.6070000000
C     20.5390000000   22.4950000000   28.4520000000
H     20.9160000000   22.3450000000   27.4370000000
H     19.5920000000   22.0070000000   28.6970000000
H     20.4130000000   23.5790000000   28.5040000000
S     21.8150000000   22.0540000000   29.6540000000
C     22.0810000000   20.3780000000   29.0340000000
H     21.0690000000   19.9690000000   29.0960000000
H     22.4340000000   20.2190000000   28.0120000000
H     22.7260000000   19.8060000000   29.7060000000
O     21.2070000000   21.8010000000   30.9980000000
C     25.7790000000   22.0550000000   31.5300000000
H     26.3060000000   22.1960000000   30.5830000000
H     25.6160000000   21.0040000000   31.7810000000
H     24.7910000000   22.5050000000   31.4040000000
S     26.5240000000   22.8530000000   32.9700000000
C     28.0410000000   21.8720000000   33.0240000000
H     27.9490000000   20.7870000000   32.9270000000
H     28.5960000000   22.1650000000   32.1300000000
H     28.4960000000   22.1600000000   33.9760000000
O     25.6850000000   22.4160000000   34.1300000000
C     30.0480000000   12.7950000000   25.4490000000
H     29.0930000000   13.3210000000   25.5270000000
H     30.3720000000   12.8580000000   24.4070000000
H     29.8940000000   11.7530000000   25.7420000000
S     31.3270000000   13.6060000000   26.4340000000
C     32.5780000000   12.3030000000   26.4200000000
H     32.0420000000   11.3730000000   26.6270000000
H     32.9730000000   12.3910000000   25.4040000000
H     33.2520000000   12.5600000000   27.2410000000
O     30.6370000000   13.5990000000   27.7630000000
C     23.9730000000   21.0190000000   36.5100000000
H     24.7180000000   21.7880000000   36.2920000000
H     23.5400000000   21.2740000000   37.4810000000
H     24.3600000000   19.9980000000   36.5430000000
S     22.5600000000   21.0590000000   35.3840000000
C     21.7170000000   22.3960000000   36.2590000000
H     21.4040000000   21.9980000000   37.2280000000
H     22.3690000000   23.2680000000   36.1720000000
H     20.8340000000   22.6450000000   35.6650000000
O     21.6590000000   19.9790000000   35.8970000000
C     15.8950000000   14.0900000000   24.9420000000
H     16.7970000000   13.5960000000   25.3130000000
H     16.0330000000   15.1210000000   24.6090000000
H     15.1130000000   14.0540000000   25.7050000000
S     15.2090000000   13.3130000000   23.4620000000
C     15.1530000000   11.7850000000   24.4260000000
H     16.1230000000   11.5740000000   24.8840000000
H     14.3820000000   11.8660000000   25.1960000000
H     14.8220000000   10.9980000000   23.7440000000
O     16.3680000000   13.1400000000   22.5320000000
C     20.1710000000   17.2000000000   26.3150000000
H     20.5130000000   16.2850000000   25.8250000000
H     20.9700000000   17.9380000000   26.4260000000
H     19.7300000000   17.0020000000   27.2950000000
S     18.9600000000   17.9330000000   25.1920000000
C     18.7820000000   19.4520000000   26.1550000000
H     18.3240000000   19.1420000000   27.0970000000
H     19.7840000000   19.8570000000   26.3160000000
H     18.1590000000   20.0940000000   25.5270000000
O     17.7320000000   17.1280000000   25.4810000000
C     23.3500000000    9.6740000000   29.0660000000
H     22.3280000000    9.6900000000   29.4540000000
H     24.0480000000    9.7420000000   29.9050000000
H     23.6890000000   10.5010000000   28.4360000000
S     23.8460000000    8.1170000000   28.2960000000
C     22.5170000000    8.0360000000   27.0750000000
H     22.5210000000    7.2010000000   26.3700000000
H     21.6740000000    7.9580000000   27.7670000000
H     22.5630000000    9.0050000000   26.5710000000
O     23.5690000000    7.1110000000   29.3690000000
C     28.0400000000   18.4850000000   30.8800000000
H     28.9500000000   18.5260000000   31.4840000000
H     27.8290000000   19.5310000000   30.6420000000
H     27.3310000000   17.9420000000   31.5100000000
S     28.4960000000   17.5680000000   29.3910000000
C     29.9800000000   18.5240000000   29.0090000000
H     30.3330000000   18.4360000000   27.9780000000
H     29.8070000000   19.5970000000   29.1290000000
H     30.7570000000   18.2380000000   29.7230000000
O     27.4780000000   18.1920000000   28.4880000000
C     16.3920000000   13.5030000000   30.1890000000
H     17.0950000000   14.1910000000   30.6650000000
H     15.6070000000   14.0930000000   29.7100000000
H     15.9530000000   12.7640000000   30.8640000000
S     17.3120000000   12.5670000000   28.9470000000
C     17.7800000000   14.1000000000   28.1120000000
H     16.8700000000   14.4930000000   27.6500000000
H     18.2150000000   14.7360000000   28.8880000000
H     18.4410000000   13.9000000000   27.2650000000
O     16.2200000000   12.0670000000   28.0530000000
C     18.0230000000    6.2090000000   26.6300000000
H     18.1380000000    7.2750000000   26.4160000000
H     17.4900000000    5.8050000000   25.7650000000
H     17.4980000000    6.1300000000   27.5860000000
S     19.5960000000    5.3680000000   26.9150000000
C     20.3050000000    5.7660000000   25.3010000000
H     20.4150000000    6.8400000000   25.1320000000
H     21.2640000000    5.2490000000   25.2170000000
H     19.6250000000    5.3920000000   24.5310000000
O     19.3520000000    3.8940000000   27.0210000000
C     23.8540000000   12.9730000000   31.5990000000
H     24.8510000000   13.3720000000   31.8020000000
H     23.8340000000   12.3760000000   30.6840000000
H     23.0650000000   13.7180000000   31.4630000000
S     23.3930000000   12.0640000000   33.0920000000
C     21.9900000000   11.1830000000   32.3720000000
H     22.2850000000   10.3890000000   31.6810000000
H     21.4280000000   10.6380000000   33.1340000000
H     21.3230000000   11.9410000000   31.9520000000
O     22.6710000000   13.0990000000   33.8970000000
C     29.0030000000   12.8470000000   32.4090000000
H     28.8170000000   13.2990000000   33.3870000000
H     28.1030000000   12.6150000000   31.8350000000
H     29.5770000000   11.9290000000   32.5580000000
S     30.0930000000   13.8760000000   31.3990000000
C     31.6430000000   13.2980000000   32.1260000000
H     31.7690000000   12.2720000000   31.7690000000
H     32.4170000000   14.0580000000   31.9930000000
H     31.3420000000   13.3460000000   33.1760000000
O     29.9130000000   15.2660000000   31.9250000000
C     22.9410000000   18.0930000000   33.3510000000
H     21.9160000000   18.3950000000   33.5820000000
H     23.6660000000   18.5280000000   34.0440000000
H     23.1140000000   18.3450000000   32.3020000000
S     22.9790000000   16.3010000000   33.5730000000
C     21.9120000000   16.2620000000   35.0310000000
H     20.8680000000   16.4630000000   34.7790000000
H     21.8370000000   15.2570000000   35.4560000000
H     22.3390000000   16.9670000000   35.7480000000
O     24.4030000000   16.0900000000   33.9830000000
C     17.2490000000   13.9410000000   34.5320000000
H     16.8050000000   14.6620000000   33.8400000000
H     16.6330000000   13.0420000000   34.6200000000
H     17.4430000000   14.2720000000   35.5550000000
S     18.8660000000   13.4740000000   33.8750000000
C     19.2860000000   15.1390000000   33.3110000000
H     18.6460000000   15.3100000000   32.4410000000
H     19.1400000000   15.7670000000   34.1930000000
H     20.3280000000   15.0540000000   32.9920000000
O     18.5950000000   12.8020000000   32.5650000000
C     29.0850000000   17.0890000000   25.7850000000
H     29.1350000000   17.2430000000   26.8650000000
H     28.0440000000   16.8990000000   25.5130000000
H     29.7990000000   16.3270000000   25.4590000000
S     29.6690000000   18.6110000000   25.0060000000
C     28.4410000000   19.7120000000   25.7440000000
H     27.4260000000   19.3780000000   25.5150000000
H     28.6660000000   19.8030000000   26.8100000000
H     28.6340000000   20.7010000000   25.3200000000
O     29.3030000000   18.5650000000   23.5550000000
C     27.6570000000   16.0800000000   22.3670000000
H     27.0540000000   16.7360000000   21.7330000000
H     28.0270000000   16.7060000000   23.1830000000
H     28.5280000000   15.6540000000   21.8620000000
S     26.7150000000   14.8840000000   23.3400000000
C     25.3650000000   16.0520000000   23.6190000000
H     24.5950000000   15.4560000000   24.1150000000
H     25.7450000000   16.9040000000   24.1880000000
H     24.9760000000   16.3280000000   22.6350000000
O     27.3780000000   14.6620000000   24.6630000000
C     18.8930000000   10.4980000000   25.4670000000
H     18.0090000000   11.1350000000   25.3800000000
H     18.8890000000   10.0620000000   26.4690000000
H     19.7400000000   11.1640000000   25.2830000000
S     18.7250000000    9.2900000000   24.1340000000
C     18.1360000000   10.4150000000   22.8490000000
H     19.0530000000   10.7230000000   22.3400000000
H     17.5980000000    9.7220000000   22.1980000000
H     17.6000000000   11.2720000000   23.2660000000
O     17.4350000000    8.6430000000   24.5320000000
C     19.1950000000    9.7430000000   30.9250000000
H     19.2530000000    9.5220000000   31.9940000000
H     20.1270000000   10.2890000000   30.7550000000
H     18.3980000000   10.4750000000   30.7710000000
S     18.9150000000    8.2400000000   29.9630000000
C     20.2360000000    7.2610000000   30.7110000000
H     21.0650000000    7.9470000000   30.9020000000
H     19.9910000000    6.7450000000   31.6430000000
H     20.4130000000    6.6190000000   29.8440000000
O     19.3930000000    8.7020000000   28.6210000000
C     23.0000000000    8.2910000000   23.2010000000
H     23.0000000000    8.2230000000   22.1100000000
H     23.9730000000    8.0530000000   23.6400000000
H     22.2190000000    7.7540000000   23.7440000000
S     22.6390000000   10.0060000000   23.6370000000
C     23.5430000000   10.8420000000   22.3150000000
H     22.9060000000   10.7900000000   21.4280000000
H     23.6550000000   11.8950000000   22.5850000000
H     24.4980000000   10.3110000000   22.3090000000
O     23.5020000000   10.3850000000   24.8000000000
C     14.2730000000    9.8800000000   28.9890000000
H     14.6920000000   10.7480000000   29.5050000000
H     13.5590000000   10.0770000000   28.1850000000
H     13.6140000000    9.3800000000   29.7030000000
S     15.4620000000    8.5780000000   28.5930000000
C     15.8890000000    9.3290000000   27.0050000000
H     15.1650000000   10.1300000000   26.8360000000
H     16.9100000000    9.6970000000   27.1310000000
H     15.8410000000    8.6270000000   26.1690000000
O     14.6010000000    7.4180000000   28.2020000000
C     15.1840000000   17.0510000000   31.3150000000
H     14.3390000000   16.6780000000   30.7300000000
H     15.8870000000   16.2150000000   31.3430000000
H     14.8230000000   17.3400000000   32.3060000000
S     15.9210000000   18.4650000000   30.4650000000
C     16.1960000000   17.4920000000   28.9670000000
H     17.1780000000   17.0310000000   29.1050000000
H     15.3600000000   16.8290000000   28.7340000000
H     16.2010000000   18.2230000000   28.1540000000
O     17.3470000000   18.6160000000   30.8940000000
C     22.9850000000   15.7580000000   20.2480000000
H     22.9010000000   16.8250000000   20.0270000000
H     22.2890000000   15.1560000000   19.6580000000
H     22.8200000000   15.6000000000   21.3170000000
S     24.6680000000   15.1630000000   19.9640000000
C     24.6730000000   15.3270000000   18.1640000000
H     24.6930000000   16.3760000000   17.8570000000
H     25.5210000000   14.7120000000   17.8530000000
H     23.7710000000   14.8280000000   17.8010000000
O     24.6780000000   13.7000000000   20.2820000000
C     24.6030000000   23.1650000000   26.1560000000
H     24.7710000000   22.5550000000   25.2650000000
H     23.6490000000   22.8470000000   26.5830000000
H     24.6350000000   24.2350000000   25.9330000000
S     25.9460000000   22.7200000000   27.2800000000
C     25.3180000000   21.1620000000   27.9470000000
H     24.3080000000   21.3060000000   28.3400000000
H     25.3110000000   20.3860000000   27.1760000000
H     26.0060000000   20.8360000000   28.7300000000
O     25.6630000000   23.7200000000   28.3580000000
C     26.7570000000   12.8180000000   27.3610000000
H     27.8290000000   12.7040000000   27.5410000000
H     26.3340000000   11.9320000000   26.8820000000
H     26.4730000000   13.6970000000   26.7770000000
S     25.8910000000   12.9690000000   28.9400000000
C     26.8950000000   14.2870000000   29.6600000000
H     26.4730000000   14.3310000000   30.6680000000
H     27.9470000000   13.9920000000   29.7030000000
H     26.7710000000   15.1740000000   29.0330000000
O     26.1860000000   11.7720000000   29.7900000000
C     28.6420000000    8.7520000000   26.0110000000
H     28.4060000000    8.5880000000   27.0650000000
H     28.5330000000    7.8670000000   25.3790000000
H     29.6980000000    8.9810000000   25.8490000000
S     27.6210000000   10.0620000000   25.2980000000
C     26.3320000000    8.8240000000   25.0340000000
H     26.6640000000    8.0110000000   24.3830000000
H     26.0480000000    8.5100000000   26.0420000000
H     25.5150000000    9.3510000000   24.5360000000
O     28.1930000000   10.3570000000   23.9460000000
C     21.7290000000   14.3130000000   23.6130000000
H     22.4590000000   13.8740000000   24.2990000000
H     22.1090000000   14.1370000000   22.6040000000
H     21.5820000000   15.3930000000   23.6990000000
S     20.1000000000   13.5750000000   23.8680000000
C     19.1130000000   14.9700000000   23.2810000000
H     19.0120000000   14.8540000000   22.1990000000
H     18.1810000000   14.8020000000   23.8270000000
H     19.5250000000   15.9340000000   23.5880000000
O     19.9110000000   13.6050000000   25.3530000000
