262

C     22.1170000000   13.6170000000   28.2490000000
C     22.8850000000   14.8450000000   27.7330000000
C     22.1690000000   16.1310000000   28.1760000000
C     22.2420000000   16.1720000000   29.7110000000
C     21.5550000000   14.9110000000   30.2600000000
C     22.1650000000   13.5830000000   29.7850000000
H     22.6390000000   16.9730000000   27.6530000000
H     23.8710000000   14.9450000000   28.2040000000
H     21.1110000000   13.7130000000   27.8220000000
H     22.5600000000   12.6900000000   27.8650000000
H     23.2760000000   16.2810000000   30.0600000000
H     21.7950000000   17.0670000000   30.1630000000
H     21.5240000000   14.9040000000   31.3570000000
H     20.4920000000   15.0770000000   30.0460000000
H     23.2370000000   13.5210000000   30.0120000000
H     21.6840000000   12.6590000000   30.1290000000
H     21.1160000000   16.1820000000   27.8710000000
N     22.9760000000   14.9150000000   26.2750000000
H     22.2620000000   15.4400000000   25.7840000000
C     23.9440000000   14.3100000000   25.5010000000
H     24.0070000000   14.7030000000   24.4700000000
O     24.7720000000   13.5140000000   25.9060000000
C     22.6700000000   22.0880000000   28.0970000000
H     21.6110000000   21.8350000000   28.0030000000
H     23.1600000000   21.6630000000   28.9770000000
H     22.7750000000   23.1760000000   28.0990000000
S     23.3580000000   21.3550000000   26.5950000000
C     22.7540000000   19.6970000000   26.9870000000
H     23.0060000000   19.4210000000   28.0150000000
H     21.6760000000   19.7760000000   26.8250000000
H     23.2340000000   19.0050000000   26.2910000000
O     24.8100000000   21.2520000000   26.9450000000
C     19.9050000000   20.1910000000   24.3530000000
H     18.8160000000   20.2760000000   24.3780000000
H     20.3530000000   20.3080000000   25.3430000000
H     20.3880000000   20.8420000000   23.6190000000
S     20.5160000000   18.5910000000   23.7760000000
C     19.7220000000   17.6600000000   25.1050000000
H     20.0030000000   16.6300000000   24.8720000000
H     20.1470000000   18.0660000000   26.0270000000
H     18.6430000000   17.8160000000   25.0410000000
O     21.9920000000   18.5310000000   24.0180000000
C     28.1960000000   12.3280000000   33.0980000000
H     28.1550000000   12.1030000000   34.1670000000
H     27.5140000000   11.7350000000   32.4830000000
H     29.2300000000   12.2100000000   32.7650000000
S     27.8060000000   14.0770000000   32.8610000000
C     28.4420000000   14.2510000000   31.1790000000
H     27.8110000000   13.7230000000   30.4600000000
H     28.5900000000   15.3020000000   30.9180000000
H     29.4140000000   13.7730000000   31.3290000000
O     29.0110000000   14.7490000000   33.4400000000
C     25.7160000000    6.8750000000   27.3530000000
H     26.3310000000    6.2160000000   27.9710000000
H     25.4870000000    7.8130000000   27.8660000000
H     24.8420000000    6.2830000000   27.0720000000
S     26.5220000000    7.4380000000   25.8370000000
C     27.7020000000    8.4990000000   26.7030000000
H     28.4500000000    9.0390000000   26.1170000000
H     27.1010000000    9.1860000000   27.3030000000
H     28.3100000000    7.9120000000   27.3950000000
O     25.4960000000    8.3770000000   25.2830000000
C     26.1510000000   18.9140000000   29.2670000000
H     26.1580000000   19.4800000000   28.3320000000
H     25.1810000000   19.0030000000   29.7630000000
H     26.9030000000   19.4490000000   29.8530000000
S     26.5760000000   17.1790000000   28.9930000000
C     26.1530000000   16.7400000000   30.6940000000
H     25.8970000000   15.6850000000   30.8220000000
H     26.9870000000   16.9710000000   31.3610000000
H     25.3140000000   17.3120000000   31.0980000000
O     28.0700000000   17.1890000000   28.8930000000
C     20.5460000000   10.4180000000   36.1920000000
H     21.2610000000   11.0300000000   36.7490000000
H     19.8190000000    9.9020000000   36.8240000000
H     21.1800000000    9.6800000000   35.6940000000
S     19.8370000000   11.3930000000   34.8450000000
C     18.2310000000   10.5770000000   34.7000000000
H     18.3080000000    9.4880000000   34.6340000000
H     17.7120000000   10.8150000000   35.6320000000
H     17.7890000000   10.9290000000   33.7650000000
O     20.6250000000   10.9730000000   33.6440000000
C     24.7560000000    5.8910000000   32.4350000000
H     25.6830000000    6.4700000000   32.4660000000
H     24.1160000000    6.1330000000   33.2880000000
H     25.0110000000    4.8290000000   32.4710000000
S     23.8560000000    6.0170000000   30.8740000000
C     24.3700000000    7.7130000000   30.5200000000
H     25.4510000000    7.7130000000   30.3590000000
H     23.8660000000    8.3490000000   29.7870000000
H     24.2770000000    8.2090000000   31.4890000000
O     22.3920000000    6.0040000000   31.1870000000
C     25.3910000000    8.8400000000   20.6420000000
H     24.7180000000    8.7100000000   19.7900000000
H     25.9580000000    9.7640000000   20.5000000000
H     26.0940000000    8.0040000000   20.6820000000
S     24.3930000000    8.8980000000   22.1470000000
C     23.4480000000    7.3750000000   21.9130000000
H     24.0770000000    6.5210000000   21.6500000000
H     23.0030000000    7.1920000000   22.8940000000
H     22.7300000000    7.5860000000   21.1150000000
O     23.5080000000   10.1000000000   22.0360000000
C     24.2650000000   20.4870000000   32.5030000000
H     25.1550000000   20.7580000000   31.9300000000
H     24.2330000000   21.0260000000   33.4540000000
H     24.3730000000   19.4180000000   32.7030000000
S     22.7770000000   20.7070000000   31.5020000000
C     21.5670000000   19.9930000000   32.6390000000
H     20.5710000000   19.9220000000   32.1950000000
H     21.9250000000   18.9900000000   32.8870000000
H     21.5420000000   20.6370000000   33.5210000000
O     22.9860000000   19.5750000000   30.5460000000
C     15.7950000000   10.7660000000   30.4000000000
H     15.1830000000   10.6880000000   29.4980000000
H     16.4320000000   11.6420000000   30.2590000000
H     16.2470000000    9.7970000000   30.6270000000
S     14.6170000000   11.0060000000   31.7500000000
C     14.4720000000   12.8030000000   31.6290000000
H     15.4700000000   13.2370000000   31.7350000000
H     13.9510000000   12.9820000000   30.6840000000
H     13.7740000000   13.0920000000   32.4190000000
O     15.4560000000   11.0790000000   32.9870000000
C     17.5090000000   20.3440000000   29.7040000000
H     17.7300000000   20.0300000000   30.7280000000
H     18.3160000000   21.0710000000   29.5790000000
H     16.5130000000   20.7500000000   29.5100000000
S     18.0140000000   19.0060000000   28.5990000000
C     19.5290000000   18.6770000000   29.5270000000
H     20.2320000000   18.2500000000   28.8080000000
H     20.0640000000   19.5750000000   29.8460000000
H     19.3830000000   17.9920000000   30.3650000000
O     18.6290000000   19.7010000000   27.4250000000
C     25.9140000000   12.5080000000   23.0280000000
H     25.4240000000   13.2260000000   22.3650000000
H     25.1060000000   11.7770000000   23.1090000000
H     26.1450000000   12.9490000000   24.0010000000
S     27.3580000000   11.7530000000   22.2470000000
C     27.8500000000   10.7690000000   23.6800000000
H     26.9160000000   10.4340000000   24.1400000000
H     28.3540000000    9.8380000000   23.4080000000
H     28.5080000000   11.2660000000   24.3960000000
O     28.3710000000   12.7980000000   21.8950000000
C     27.2180000000   11.8660000000   28.0200000000
H     28.1490000000   12.2460000000   28.4480000000
H     27.3590000000   11.2060000000   27.1600000000
H     26.4970000000   12.6470000000   27.7670000000
S     26.2300000000   11.1960000000   29.3760000000
C     24.7090000000   11.0520000000   28.4120000000
H     24.9210000000   10.5350000000   27.4730000000
H     23.9070000000   10.5590000000   28.9680000000
H     24.4220000000   12.0730000000   28.1500000000
O     25.8550000000   12.4340000000   30.1300000000
C     23.8430000000   11.1330000000   32.4110000000
H     23.6840000000   10.2580000000   31.7750000000
H     22.8860000000   11.4130000000   32.8580000000
H     24.3680000000   11.9600000000   31.9270000000
S     24.9160000000   10.7690000000   33.8190000000
C     23.6790000000    9.8660000000   34.7780000000
H     23.1850000000   10.5680000000   35.4550000000
H     22.9350000000    9.4500000000   34.0930000000
H     24.2850000000    9.1730000000   35.3650000000
O     25.2680000000   12.0310000000   34.5440000000
C     19.2410000000   17.3110000000   33.4120000000
H     18.8080000000   18.2800000000   33.1480000000
H     19.5000000000   17.1670000000   34.4640000000
H     20.1360000000   16.9810000000   32.8780000000
S     18.0130000000   16.0730000000   32.9400000000
C     19.0530000000   14.6990000000   33.4840000000
H     18.7240000000   13.8050000000   32.9480000000
H     20.0330000000   15.1040000000   33.2190000000
H     18.9260000000   14.5210000000   34.5550000000
O     18.2210000000   16.1080000000   31.4570000000
C     24.2010000000   13.8040000000   17.8380000000
H     24.5020000000   12.9330000000   17.2500000000
H     23.2010000000   14.1700000000   17.5900000000
H     24.8600000000   14.6120000000   17.5100000000
S     24.5110000000   13.6890000000   19.6140000000
C     23.2690000000   12.4280000000   19.9810000000
H     22.2990000000   12.7240000000   19.5750000000
H     23.5310000000   11.4720000000   19.5220000000
H     23.1630000000   12.4590000000   21.0690000000
O     24.0150000000   14.9510000000   20.2480000000
C     16.7280000000   15.0020000000   29.1820000000
H     15.8900000000   15.1630000000   28.5000000000
H     16.3760000000   14.3460000000   29.9830000000
H     17.0340000000   15.9820000000   29.5560000000
S     18.0700000000   14.0700000000   28.4110000000
C     18.4500000000   15.0720000000   26.9560000000
H     17.5210000000   15.5800000000   26.6840000000
H     19.2190000000   15.8100000000   27.2010000000
H     18.8560000000   14.3830000000   26.2110000000
O     17.2970000000   12.9240000000   27.8360000000
C     27.5000000000   15.7710000000   20.3580000000
H     28.3420000000   15.2440000000   20.8130000000
H     27.5570000000   16.8150000000   20.6780000000
H     26.4890000000   15.4350000000   20.6020000000
S     27.7300000000   15.9930000000   18.5790000000
C     28.0520000000   14.2480000000   18.2360000000
H     28.3770000000   14.1820000000   17.1950000000
H     28.9280000000   13.9340000000   18.8090000000
H     27.1970000000   13.6180000000   18.4940000000
O     29.0810000000   16.6370000000   18.5290000000
C     25.0580000000   16.3080000000   34.3480000000
H     24.6940000000   17.1280000000   33.7250000000
H     25.4730000000   16.6280000000   35.3070000000
H     25.8670000000   15.7360000000   33.8860000000
S     23.6070000000   15.2530000000   34.5660000000
C     23.7700000000   14.5170000000   32.9240000000
H     23.9450000000   15.3600000000   32.2490000000
H     24.6700000000   13.9080000000   33.0360000000
H     22.9120000000   13.8900000000   32.6700000000
O     22.4710000000   16.2190000000   34.4330000000
C     24.7890000000   17.5580000000   21.9400000000
H     23.8630000000   17.0740000000   22.2600000000
H     24.7110000000   18.6480000000   21.9080000000
H     25.1020000000   17.1380000000   20.9810000000
S     25.9750000000   17.0490000000   23.2040000000
C     25.4210000000   17.9730000000   24.6550000000
H     24.9510000000   18.8820000000   24.2730000000
H     24.7200000000   17.4080000000   25.2750000000
H     26.3170000000   18.3080000000   25.1850000000
O     27.2830000000   17.6800000000   22.8420000000
C     28.7920000000   15.1180000000   23.8570000000
H     28.9280000000   16.1910000000   24.0150000000
H     29.5320000000   14.8120000000   23.1140000000
H     27.7280000000   14.9310000000   23.6900000000
S     29.3450000000   14.1940000000   25.3080000000
C     28.1460000000   14.8120000000   26.5100000000
H     28.0770000000   15.9030000000   26.4910000000
H     27.1870000000   14.3540000000   26.2530000000
H     28.5480000000   14.4000000000   27.4390000000
O     30.5710000000   14.9660000000   25.6870000000
C     19.8240000000    8.2320000000   29.4370000000
H     20.2450000000    7.2250000000   29.4960000000
H     18.8090000000    8.0390000000   29.7940000000
H     19.7440000000    8.6810000000   28.4430000000
S     20.7580000000    9.2850000000   30.5700000000
C     19.5670000000   10.6100000000   30.8740000000
H     19.0340000000   10.4730000000   31.8190000000
H     20.1470000000   11.5330000000   30.9520000000
H     18.9180000000   10.6580000000   29.9960000000
O     21.6440000000    9.8120000000   29.4840000000
C     21.9350000000   10.5040000000   25.0270000000
H     22.5760000000   10.9570000000   24.2670000000
H     22.1120000000   10.8560000000   26.0470000000
H     22.0890000000    9.4240000000   24.9530000000
S     20.1980000000   10.7130000000   24.5750000000
C     19.7670000000   11.0230000000   26.3020000000
H     18.7020000000   11.2320000000   26.4300000000
H     20.1140000000   10.2330000000   26.9730000000
H     20.3750000000   11.9070000000   26.5100000000
O     19.5730000000    9.3680000000   24.3680000000
C     21.4060000000   14.9820000000   21.8930000000
H     22.4070000000   15.0460000000   22.3280000000
H     21.5400000000   14.6260000000   20.8680000000
H     20.8460000000   15.9140000000   21.7770000000
S     20.5520000000   13.6980000000   22.8340000000
C     19.0090000000   13.9910000000   21.9400000000
H     18.3640000000   13.1300000000   22.1340000000
H     18.6110000000   14.9570000000   22.2610000000
H     19.1160000000   14.0290000000   20.8530000000
O     20.2780000000   14.2780000000   24.1860000000
