302

C     21.4780000000   17.1900000000   28.6250000000
C     22.3930000000   16.2220000000   29.3930000000
C     23.7540000000   16.8580000000   29.7230000000
C     23.5540000000   18.2400000000   30.3670000000
C     22.8170000000   19.1640000000   29.3830000000
C     21.3940000000   18.6350000000   29.1450000000
H     24.3320000000   16.2840000000   30.4570000000
H     21.8400000000   16.0680000000   30.3280000000
H     21.9110000000   17.2790000000   27.6210000000
H     20.4640000000   16.7730000000   28.5950000000
H     22.9400000000   18.1650000000   31.2730000000
H     24.5220000000   18.7070000000   30.5870000000
H     22.7300000000   20.1660000000   29.8190000000
H     23.3430000000   19.3230000000   28.4340000000
H     20.7510000000   18.9440000000   29.9780000000
H     20.9530000000   19.1510000000   28.2830000000
H     24.4260000000   16.8610000000   28.8560000000
N     22.4920000000   14.9220000000   28.7320000000
H     22.5470000000   14.7460000000   27.7360000000
C     22.6290000000   13.7920000000   29.5100000000
H     22.7910000000   12.9270000000   28.8410000000
O     22.5430000000   13.7360000000   30.7240000000
C     23.0530000000   21.0930000000   24.5100000000
H     23.5130000000   20.6830000000   23.6070000000
H     23.8050000000   21.7040000000   25.0160000000
H     22.4900000000   20.3300000000   25.0540000000
S     21.8400000000   22.2580000000   23.8500000000
C     21.2890000000   22.7670000000   25.4940000000
H     20.9580000000   21.9320000000   26.1170000000
H     22.1290000000   23.3650000000   25.8560000000
H     20.4520000000   23.4650000000   25.4060000000
O     20.8560000000   21.2550000000   23.3340000000
C     18.1670000000   18.7650000000   34.7430000000
H     18.5790000000   18.7330000000   35.7550000000
H     19.1260000000   18.5870000000   34.2490000000
H     17.7540000000   19.7680000000   34.6050000000
S     16.9200000000   17.4660000000   34.6010000000
C     16.8840000000   17.3850000000   32.7960000000
H     16.9770000000   18.3980000000   32.3950000000
H     17.7000000000   16.8320000000   32.3250000000
H     15.9640000000   16.8990000000   32.4600000000
O     15.7360000000   18.3330000000   34.8960000000
C     20.0530000000   19.5610000000   20.2900000000
H     20.9390000000   20.1990000000   20.2250000000
H     20.0810000000   19.0910000000   19.3040000000
H     19.1090000000   20.1070000000   20.3630000000
S     20.4270000000   18.4300000000   21.6490000000
C     21.8330000000   17.6870000000   20.7920000000
H     22.6460000000   18.4150000000   20.7310000000
H     22.1110000000   16.8260000000   21.4050000000
H     21.4730000000   17.3400000000   19.8200000000
O     19.4430000000   17.3070000000   21.5430000000
C     27.6800000000   21.4120000000   30.6680000000
H     28.6020000000   21.9390000000   30.9270000000
H     27.6540000000   20.3550000000   30.9440000000
H     27.5580000000   21.4850000000   29.5840000000
S     26.3220000000   22.3080000000   31.4530000000
C     26.8590000000   21.6560000000   33.0500000000
H     27.0230000000   20.5880000000   32.8850000000
H     27.6530000000   22.2610000000   33.4950000000
H     25.9910000000   21.6600000000   33.7150000000
O     25.1450000000   21.4550000000   31.0940000000
C     27.2840000000   17.6780000000   32.1250000000
H     26.8180000000   18.6610000000   32.2330000000
H     27.4290000000   17.3800000000   31.0830000000
H     26.7360000000   17.0060000000   32.7900000000
S     28.9660000000   17.7700000000   32.7790000000
C     28.5550000000   18.4820000000   34.3880000000
H     27.9140000000   19.3410000000   34.1730000000
H     28.0370000000   17.7740000000   35.0400000000
H     29.4480000000   18.8610000000   34.8920000000
O     29.3580000000   19.0580000000   32.1240000000
C     17.5590000000   12.2740000000   34.5680000000
H     16.6300000000   12.8220000000   34.7410000000
H     18.0520000000   12.1120000000   35.5310000000
H     18.2780000000   12.9360000000   34.0790000000
S     17.4190000000   10.7550000000   33.5990000000
C     16.3430000000    9.8080000000   34.7000000000
H     16.8120000000    9.8240000000   35.6870000000
H     15.2710000000   10.0200000000   34.7220000000
H     16.4660000000    8.7550000000   34.4350000000
O     18.7810000000   10.1490000000   33.7440000000
C     23.9490000000   19.8210000000   33.9770000000
H     24.0310000000   19.9760000000   35.0560000000
H     24.1620000000   18.7700000000   33.7640000000
H     24.5310000000   20.4280000000   33.2790000000
S     22.2190000000   20.1620000000   33.5840000000
C     22.2660000000   21.8540000000   34.2160000000
H     22.8590000000   21.8680000000   35.1340000000
H     22.8340000000   22.3240000000   33.4090000000
H     21.3170000000   22.3630000000   34.4020000000
O     21.5830000000   19.3920000000   34.6990000000
C     25.3160000000    9.4730000000   31.1520000000
H     24.5240000000   10.2180000000   31.0400000000
H     26.2340000000   10.0250000000   30.9340000000
H     25.2340000000    8.6240000000   30.4690000000
S     25.3370000000    8.9010000000   32.8660000000
C     26.4520000000    7.4820000000   32.9570000000
H     27.3680000000    7.8600000000   33.4170000000
H     25.9890000000    6.8020000000   33.6750000000
H     26.5330000000    7.0060000000   31.9770000000
O     23.9980000000    8.3540000000   33.2520000000
C     20.0260000000   16.8030000000   25.3790000000
H     20.8450000000   17.5260000000   25.4040000000
H     19.3720000000   17.0400000000   24.5360000000
H     19.4610000000   16.8880000000   26.3110000000
S     20.4310000000   15.0430000000   25.3320000000
C     20.8700000000   15.2040000000   23.5860000000
H     21.5770000000   16.0120000000   23.3800000000
H     21.3530000000   14.2590000000   23.3230000000
H     19.9480000000   15.3220000000   23.0120000000
O     19.0690000000   14.4320000000   25.4420000000
C     20.7340000000    8.0620000000   26.4420000000
H     20.4580000000    8.9820000000   26.9630000000
H     21.4130000000    8.2830000000   25.6140000000
H     19.9540000000    7.4990000000   25.9230000000
S     21.7090000000    7.0790000000   27.6040000000
C     22.5310000000    5.9090000000   26.4990000000
H     21.7770000000    5.4320000000   25.8670000000
H     23.2600000000    6.4600000000   25.9000000000
H     22.9990000000    5.1550000000   27.1380000000
O     20.7110000000    6.1490000000   28.2210000000
C     29.7820000000   18.8410000000   27.9880000000
H     29.8560000000   19.1870000000   29.0220000000
H     30.8260000000   18.6140000000   27.7560000000
H     29.5910000000   19.7190000000   27.3660000000
S     28.6920000000   17.4070000000   27.8440000000
C     27.2720000000   18.3130000000   28.4970000000
H     27.0340000000   19.1730000000   27.8660000000
H     26.3910000000   17.6690000000   28.5620000000
H     27.5540000000   18.6600000000   29.4950000000
O     29.0880000000   16.5190000000   28.9820000000
C     17.2230000000   13.0850000000   30.9360000000
H     16.4230000000   12.3620000000   31.1110000000
H     17.9250000000   13.1920000000   31.7670000000
H     16.7250000000   14.0270000000   30.6920000000
S     18.0520000000   12.5750000000   29.4140000000
C     18.8390000000   14.1830000000   29.1700000000
H     19.4680000000   14.1970000000   28.2770000000
H     18.1220000000   15.0080000000   29.1730000000
H     19.5380000000   14.2990000000   30.0020000000
O     16.9390000000   12.3720000000   28.4330000000
C     21.4220000000   16.2150000000   33.2870000000
H     22.5100000000   16.1060000000   33.2750000000
H     20.9850000000   15.6880000000   32.4350000000
H     21.0740000000   17.2500000000   33.2430000000
S     20.8520000000   15.4750000000   34.8340000000
C     21.0280000000   13.7480000000   34.3320000000
H     22.0140000000   13.3290000000   34.5480000000
H     20.3860000000   13.2570000000   35.0670000000
H     20.8440000000   13.5290000000   33.2770000000
O     19.3920000000   15.7220000000   35.0580000000
C     29.7270000000   14.3100000000   31.7560000000
H     30.7090000000   14.1330000000   32.2020000000
H     29.8340000000   14.8420000000   30.8070000000
H     29.0290000000   14.8330000000   32.4140000000
S     29.1910000000   12.6270000000   31.3790000000
C     29.6440000000   11.7450000000   32.8900000000
H     29.8940000000   10.6830000000   32.8300000000
H     30.5480000000   12.2340000000   33.2600000000
H     28.8210000000   11.9160000000   33.5880000000
O     30.2090000000   12.3190000000   30.3250000000
C     13.0740000000   21.7240000000   31.2410000000
H     12.6250000000   20.7360000000   31.3710000000
H     12.8260000000   22.3930000000   32.0690000000
H     12.9350000000   22.2310000000   30.2830000000
S     14.8790000000   21.6370000000   31.2040000000
C     15.0360000000   21.2010000000   32.9510000000
H     14.6300000000   20.1860000000   32.9660000000
H     16.0790000000   21.2130000000   33.2770000000
H     14.3710000000   21.7460000000   33.6270000000
O     15.2840000000   23.0690000000   31.0480000000
C     17.7980000000   21.2050000000   25.3030000000
H     17.8440000000   22.0740000000   24.6410000000
H     16.7840000000   21.1130000000   25.7000000000
H     18.4720000000   21.0110000000   26.1410000000
S     18.0550000000   19.7440000000   24.2700000000
C     17.2080000000   20.3960000000   22.8130000000
H     17.1680000000   19.7160000000   21.9580000000
H     16.2970000000   20.9230000000   23.1070000000
H     17.9290000000   21.1900000000   22.6040000000
O     17.0030000000   18.7570000000   24.6710000000
C     21.7120000000   23.3080000000   30.5430000000
H     20.9550000000   22.5560000000   30.7810000000
H     22.7100000000   22.9330000000   30.7870000000
H     21.5520000000   24.1590000000   31.2100000000
S     21.7800000000   23.8870000000   28.8330000000
C     23.2820000000   24.8500000000   29.1160000000
H     23.1610000000   25.6620000000   29.8380000000
H     24.0800000000   24.1940000000   29.4760000000
H     23.6320000000   25.2890000000   28.1780000000
O     20.6770000000   24.8930000000   28.7230000000
C     24.8370000000   12.7660000000   32.6260000000
H     24.2420000000   12.4360000000   31.7710000000
H     25.6750000000   12.0770000000   32.7570000000
H     24.2610000000   12.7690000000   33.5550000000
S     25.5280000000   14.4070000000   32.3160000000
C     25.9480000000   14.0970000000   30.5860000000
H     25.0230000000   14.2780000000   30.0330000000
H     26.8030000000   14.7570000000   30.4150000000
H     26.3080000000   13.0780000000   30.4240000000
O     26.7680000000   14.3480000000   33.1530000000
C     27.7770000000   17.9020000000   23.3320000000
H     28.0430000000   16.9580000000   23.8150000000
H     26.7540000000   17.8370000000   22.9530000000
H     28.4960000000   17.8550000000   22.5100000000
S     28.2820000000   19.1780000000   24.5070000000
C     27.8580000000   20.4760000000   23.3240000000
H     26.7950000000   20.7100000000   23.4240000000
H     28.5160000000   21.2980000000   23.6180000000
H     28.1840000000   20.2790000000   22.3000000000
O     29.7760000000   19.1830000000   24.4140000000
C     25.3270000000   16.0270000000   25.9520000000
H     26.0010000000   16.0630000000   25.0920000000
H     25.9670000000   15.8410000000   26.8190000000
H     24.6520000000   15.1710000000   25.8720000000
S     24.4370000000   17.5970000000   26.0250000000
C     23.9040000000   17.5300000000   24.3000000000
H     23.9800000000   18.4530000000   23.7200000000
H     24.5370000000   16.8680000000   23.7030000000
H     22.8240000000   17.4170000000   24.1720000000
O     25.5600000000   18.5850000000   25.9580000000
C     17.4730000000   10.4100000000   25.6310000000
H     16.7050000000    9.9440000000   25.0070000000
H     17.5640000000    9.7490000000   26.4970000000
H     17.2170000000   11.3860000000   26.0510000000
S     18.9820000000   10.4860000000   24.6400000000
C     18.2120000000   11.4420000000   23.3140000000
H     18.0990000000   12.4730000000   23.6580000000
H     18.7870000000   11.3700000000   22.3880000000
H     17.2780000000   10.9110000000   23.1150000000
O     18.9890000000    9.1090000000   24.0520000000
C     20.7300000000    8.3500000000   30.8850000000
H     21.1860000000    7.8470000000   31.7420000000
H     19.7470000000    8.7470000000   31.1490000000
H     20.5460000000    7.6310000000   30.0830000000
S     21.6930000000    9.7740000000   30.3250000000
C     21.5430000000   10.6020000000   31.9240000000
H     22.1960000000   10.1610000000   32.6820000000
H     21.8740000000   11.6380000000   31.8150000000
H     20.5240000000   10.6250000000   32.3170000000
O     20.7360000000   10.5670000000   29.4900000000
C     15.7750000000   18.9590000000   28.2730000000
H     15.4100000000   19.2440000000   27.2830000000
H     14.9740000000   18.5150000000   28.8710000000
H     16.3420000000   19.8010000000   28.6780000000
S     16.9560000000   17.6590000000   27.8460000000
C     15.9280000000   16.1840000000   27.6650000000
H     15.4870000000   16.2390000000   26.6660000000
H     16.6050000000   15.3280000000   27.7160000000
H     15.1600000000   16.2190000000   28.4420000000
O     17.7080000000   17.3060000000   29.0910000000
C     26.3890000000   14.2490000000   22.8440000000
H     25.8340000000   15.0090000000   23.3990000000
H     26.5530000000   13.4430000000   23.5650000000
H     27.2790000000   14.7010000000   22.3990000000
S     25.2050000000   13.5920000000   21.6470000000
C     25.0840000000   15.1810000000   20.7940000000
H     24.3840000000   15.2420000000   19.9570000000
H     24.8700000000   15.9660000000   21.5240000000
H     25.9820000000   15.3300000000   20.1880000000
O     24.0400000000   13.5870000000   22.5880000000
C     25.1870000000   10.6380000000   37.5630000000
H     26.2270000000   10.5400000000   37.8860000000
H     24.7500000000   11.4300000000   38.1770000000
H     24.6790000000    9.6730000000   37.6200000000
S     24.9900000000   11.2200000000   35.8630000000
C     26.3270000000   12.3810000000   36.2220000000
H     26.3700000000   13.1270000000   35.4240000000
H     26.1930000000   12.8740000000   37.1880000000
H     27.2540000000   11.8020000000   36.2300000000
O     23.7860000000   12.0990000000   36.0020000000
C     25.1950000000   21.9490000000   27.4880000000
H     25.3140000000   21.5950000000   28.5150000000
H     24.1640000000   22.2630000000   27.3020000000
H     25.3100000000   21.0840000000   26.8290000000
S     26.3900000000   23.2290000000   27.0420000000
C     27.9140000000   22.2720000000   26.8770000000
H     28.6790000000   22.9890000000   27.1870000000
H     28.0940000000   21.4880000000   27.6170000000
H     28.0380000000   22.0490000000   25.8140000000
O     26.6060000000   23.9340000000   28.3440000000
C     27.7800000000   11.5830000000   26.0580000000
H     28.6120000000   12.0100000000   25.4930000000
H     28.1600000000   10.8540000000   26.7780000000
H     27.0580000000   11.0100000000   25.4700000000
S     26.7560000000   12.6900000000   27.0540000000
C     28.2650000000   13.4270000000   27.7200000000
H     28.8000000000   13.9230000000   26.9060000000
H     28.0690000000   14.2690000000   28.3880000000
H     28.8360000000   12.5460000000   28.0260000000
O     26.0470000000   11.7800000000   28.0090000000
C     22.3590000000   10.9740000000   26.6780000000
H     23.1530000000   11.2230000000   27.3870000000
H     21.3930000000   11.1000000000   27.1740000000
H     22.4880000000    9.9270000000   26.3930000000
S     22.7340000000   12.1260000000   25.3380000000
C     24.4300000000   11.5690000000   25.0600000000
H     24.7970000000   10.7890000000   25.7330000000
H     24.5710000000   11.0580000000   24.1040000000
H     25.0950000000   12.4350000000   25.0230000000
O     22.8470000000   13.3810000000   26.1460000000
