272

C     29.1890000000   25.9340000000   27.4930000000
C     27.8870000000   26.7510000000   27.5360000000
C     26.7160000000   25.8450000000   27.9520000000
C     26.9810000000   25.1400000000   29.2920000000
C     28.2890000000   24.3340000000   29.2330000000
C     29.5330000000   25.0790000000   28.7240000000
H     25.7990000000   26.4280000000   27.8050000000
H     28.1320000000   27.4970000000   28.3010000000
H     29.1060000000   25.2950000000   26.6050000000
H     30.0090000000   26.6360000000   27.2990000000
H     27.0550000000   25.9570000000   30.0200000000
H     26.1560000000   24.5650000000   29.7310000000
H     28.4690000000   24.0740000000   30.2840000000
H     28.1080000000   23.4270000000   28.6440000000
H     29.7780000000   25.7670000000   29.5430000000
H     30.4110000000   24.4480000000   28.5350000000
H     26.6340000000   25.0960000000   27.1550000000
N     27.7360000000   27.3590000000   26.2150000000
H     27.4780000000   26.7180000000   25.4740000000
C     27.9370000000   28.6860000000   25.9000000000
H     27.7250000000   28.9150000000   24.8400000000
O     28.3070000000   29.4820000000   26.7440000000
C     25.0060000000   30.7920000000   25.6850000000
H     24.3830000000   31.4600000000   26.2860000000
H     24.8520000000   29.8280000000   26.1760000000
H     25.9980000000   31.2410000000   25.5840000000
S     24.2400000000   30.4750000000   24.0790000000
C     23.9770000000   32.2000000000   23.6130000000
H     23.2340000000   32.5460000000   24.3360000000
H     24.9340000000   32.7280000000   23.6340000000
H     23.5620000000   32.2190000000   22.6020000000
O     22.9120000000   30.1760000000   24.7020000000
C     23.4090000000   24.2820000000   33.6130000000
H     24.4620000000   24.3900000000   33.3390000000
H     23.2450000000   24.5870000000   34.6490000000
H     23.0510000000   23.2770000000   33.3740000000
S     22.5040000000   25.5080000000   32.6420000000
C     23.1830000000   24.9430000000   31.0660000000
H     24.2290000000   24.7030000000   31.2730000000
H     22.6180000000   24.1050000000   30.6500000000
H     23.2070000000   25.6810000000   30.2600000000
O     23.2970000000   26.7690000000   32.7890000000
C     30.1370000000   27.4800000000   33.9900000000
H     29.8150000000   28.4520000000   34.3730000000
H     30.8020000000   26.9220000000   34.6540000000
H     30.7250000000   27.6070000000   33.0770000000
S     28.7260000000   26.3970000000   33.6730000000
C     27.7580000000   27.5200000000   32.6390000000
H     28.3440000000   27.8270000000   31.7690000000
H     26.8040000000   27.0570000000   32.3730000000
H     27.6460000000   28.4570000000   33.1900000000
O     27.8700000000   26.0700000000   34.8560000000
C     32.0590000000   22.8290000000   33.3060000000
H     31.3560000000   21.9930000000   33.2470000000
H     31.6810000000   23.7520000000   32.8600000000
H     32.9280000000   22.5320000000   32.7130000000
S     32.7190000000   23.0700000000   34.9710000000
C     31.2470000000   23.9370000000   35.5590000000
H     30.4710000000   23.1680000000   35.5960000000
H     31.4220000000   24.3960000000   36.5360000000
H     31.0610000000   24.7190000000   34.8180000000
O     33.7330000000   24.1240000000   34.6520000000
C     26.4470000000   29.3230000000   19.5610000000
H     26.8760000000   28.3340000000   19.7380000000
H     25.6870000000   29.1860000000   18.7880000000
H     27.2490000000   29.9170000000   19.1140000000
S     25.9210000000   30.0870000000   21.1120000000
C     25.3700000000   31.6170000000   20.3240000000
H     26.2260000000   32.0220000000   19.7780000000
H     24.5480000000   31.4010000000   19.6370000000
H     25.1100000000   32.2750000000   21.1570000000
O     27.1870000000   30.5220000000   21.7830000000
C     30.8860000000   20.6150000000   29.3300000000
H     31.0520000000   21.6880000000   29.4550000000
H     31.8740000000   20.1660000000   29.4570000000
H     30.4400000000   20.4830000000   28.3410000000
S     29.6740000000   20.0230000000   30.5330000000
C     30.8760000000   19.4710000000   31.7640000000
H     30.2610000000   19.0070000000   32.5390000000
H     31.5920000000   18.7200000000   31.4190000000
H     31.3830000000   20.3740000000   32.1140000000
O     29.0890000000   18.7870000000   29.9230000000
C     29.5940000000   35.9260000000   27.8210000000
H     28.5070000000   35.8230000000   27.8680000000
H     29.8190000000   36.8790000000   28.3080000000
H     29.8690000000   36.1440000000   26.7860000000
S     30.5720000000   34.5890000000   28.5420000000
C     30.2910000000   33.2470000000   27.3650000000
H     30.2650000000   32.3050000000   27.9190000000
H     29.2830000000   33.4240000000   26.9840000000
H     30.9910000000   33.2930000000   26.5270000000
O     29.8150000000   34.2490000000   29.7890000000
C     27.2550000000   22.7990000000   35.2080000000
H     26.6870000000   21.8750000000   35.3440000000
H     27.9650000000   22.9690000000   36.0220000000
H     26.6320000000   23.6950000000   35.1380000000
S     28.4210000000   22.6460000000   33.8360000000
C     27.1990000000   22.1150000000   32.6150000000
H     26.7330000000   21.1600000000   32.8700000000
H     26.4740000000   22.9300000000   32.6790000000
H     27.6500000000   22.0100000000   31.6250000000
O     29.1500000000   21.3540000000   34.0350000000
C     22.3370000000   21.8530000000   28.4870000000
H     22.6340000000   22.4700000000   29.3390000000
H     22.0410000000   22.5220000000   27.6740000000
H     21.5890000000   21.0790000000   28.6780000000
S     23.9140000000   21.1430000000   27.9660000000
C     23.4880000000   19.9250000000   26.7010000000
H     24.3260000000   19.2740000000   26.4390000000
H     22.7660000000   19.1840000000   27.0520000000
H     23.1890000000   20.3570000000   25.7420000000
O     24.3050000000   20.2230000000   29.0810000000
C     35.8740000000   22.6700000000   30.3720000000
H     36.6560000000   23.2290000000   30.8920000000
H     35.0340000000   22.4980000000   31.0500000000
H     36.2730000000   21.7180000000   30.0130000000
S     35.2280000000   23.5310000000   28.9210000000
C     34.3150000000   22.0890000000   28.3270000000
H     33.8280000000   22.2040000000   27.3560000000
H     34.9910000000   21.2400000000   28.2000000000
H     33.5510000000   21.9260000000   29.0920000000
O     36.3210000000   23.4290000000   27.9020000000
C     33.4230000000   24.8140000000   25.5230000000
H     33.4680000000   25.9030000000   25.4410000000
H     33.4250000000   24.5090000000   26.5730000000
H     34.3100000000   24.2970000000   25.1490000000
S     31.9260000000   24.2230000000   24.7020000000
C     32.1760000000   22.4340000000   24.6500000000
H     31.8150000000   21.9860000000   25.5790000000
H     31.5330000000   22.1740000000   23.8050000000
H     33.2350000000   22.2870000000   24.4250000000
O     32.3730000000   24.7150000000   23.3600000000
C     21.1580000000   25.3820000000   28.4460000000
H     21.1150000000   24.8440000000   29.3960000000
H     20.7990000000   24.7140000000   27.6590000000
H     22.0700000000   25.8490000000   28.0650000000
S     19.8770000000   26.6530000000   28.5420000000
C     19.1950000000   26.1440000000   30.1360000000
H     18.4390000000   26.8820000000   30.4160000000
H     18.8360000000   25.1120000000   30.1030000000
H     20.0480000000   26.2070000000   30.8160000000
O     18.8510000000   26.2470000000   27.5300000000
C     29.8370000000   32.9680000000   23.4100000000
H     30.1900000000   33.9800000000   23.6200000000
H     30.3830000000   32.2760000000   24.0570000000
H     29.8760000000   32.8260000000   22.3270000000
S     28.1080000000   33.0100000000   23.9350000000
C     27.5790000000   33.8990000000   22.4540000000
H     26.5950000000   34.3540000000   22.5950000000
H     28.2060000000   34.7780000000   22.2820000000
H     27.6420000000   33.2560000000   21.5730000000
O     28.2410000000   34.1320000000   24.9170000000
C     30.4600000000   28.7650000000   19.8550000000
H     29.9100000000   28.9290000000   18.9250000000
H     31.2940000000   28.1000000000   19.6130000000
H     29.7700000000   28.2700000000   20.5430000000
S     30.8500000000   30.3920000000   20.5370000000
C     31.8870000000   30.8820000000   19.1410000000
H     32.3560000000   31.7670000000   19.5790000000
H     32.4300000000   29.9750000000   18.8640000000
H     31.2670000000   31.1890000000   18.2950000000
O     31.7620000000   30.0960000000   21.6870000000
C     27.1670000000   26.2420000000   22.3510000000
H     27.4780000000   26.9080000000   21.5410000000
H     26.3540000000   25.6000000000   22.0020000000
H     26.6910000000   26.8280000000   23.1400000000
S     28.4840000000   25.2930000000   23.1440000000
C     28.8520000000   24.1700000000   21.7780000000
H     28.0390000000   23.4770000000   21.5450000000
H     29.0240000000   24.7960000000   20.8990000000
H     29.7630000000   23.6530000000   22.0890000000
O     27.7860000000   24.4770000000   24.1880000000
C     30.4940000000   31.1810000000   33.8370000000
H     29.7550000000   31.2810000000   33.0370000000
H     30.3590000000   30.3630000000   34.5480000000
H     30.5900000000   32.1380000000   34.3560000000
S     32.1180000000   30.9390000000   33.0820000000
C     31.8920000000   32.1940000000   31.8010000000
H     31.5650000000   31.7570000000   30.8540000000
H     31.2390000000   33.0260000000   32.0770000000
H     32.8950000000   32.5810000000   31.6010000000
O     32.1020000000   29.6180000000   32.3790000000
C     24.7090000000   29.7790000000   34.4630000000
H     24.8620000000   30.0720000000   35.5050000000
H     23.7450000000   29.2630000000   34.4320000000
H     25.5110000000   29.0870000000   34.1970000000
S     24.5000000000   31.1500000000   33.3040000000
C     25.9340000000   32.1300000000   33.8020000000
H     26.7910000000   31.5620000000   33.4340000000
H     25.9900000000   33.1210000000   33.3440000000
H     25.9550000000   32.2220000000   34.8910000000
O     23.3050000000   31.8650000000   33.8540000000
C     26.3470000000   34.8920000000   29.0730000000
H     25.7680000000   34.6300000000   29.9620000000
H     27.3400000000   34.4460000000   29.1710000000
H     26.3660000000   35.9840000000   29.1120000000
S     25.5160000000   34.3040000000   27.5800000000
C     24.3270000000   35.6590000000   27.4540000000
H     24.8150000000   36.4940000000   26.9450000000
H     23.5440000000   35.3220000000   26.7700000000
H     23.8860000000   35.9470000000   28.4120000000
O     24.7150000000   33.1980000000   28.1920000000
C     24.2740000000   27.1790000000   24.8430000000
H     25.2870000000   27.3450000000   25.2180000000
H     24.3150000000   27.2320000000   23.7520000000
H     23.5990000000   27.9120000000   25.2930000000
S     23.6500000000   25.6550000000   25.5860000000
C     24.4460000000   24.4250000000   24.5290000000
H     24.1000000000   24.7120000000   23.5320000000
H     25.5390000000   24.4160000000   24.5290000000
H     24.0580000000   23.4360000000   24.7830000000
O     22.1730000000   25.5750000000   25.3560000000
C     22.1570000000   29.2100000000   27.6520000000
H     21.2210000000   29.7190000000   27.8960000000
H     22.7940000000   29.7490000000   26.9450000000
H     21.7730000000   28.3670000000   27.0730000000
S     22.9670000000   28.4660000000   29.0860000000
C     23.6300000000   29.9870000000   29.8020000000
H     22.8270000000   30.5120000000   30.3250000000
H     24.3030000000   29.6450000000   30.5920000000
H     24.1130000000   30.6260000000   29.0580000000
O     24.1880000000   27.8380000000   28.4890000000
C     31.7280000000   29.7950000000   26.3270000000
H     32.4440000000   30.2960000000   26.9840000000
H     30.8420000000   30.4090000000   26.1420000000
H     31.4610000000   28.8040000000   26.7030000000
S     32.5940000000   29.4190000000   24.7860000000
C     31.2600000000   28.4520000000   24.0420000000
H     31.5470000000   28.3140000000   22.9970000000
H     31.2250000000   27.4750000000   24.5310000000
H     30.2790000000   28.9330000000   24.0660000000
O     33.6820000000   28.5390000000   25.3160000000
C     22.0900000000   28.8400000000   21.5430000000
H     21.0360000000   28.5520000000   21.4980000000
H     22.2680000000   28.8060000000   22.6210000000
H     22.3320000000   29.8250000000   21.1350000000
S     23.1210000000   27.6100000000   20.7130000000
C     22.3590000000   26.2150000000   21.5720000000
H     21.4070000000   25.9220000000   21.1230000000
H     22.9690000000   25.3220000000   21.4120000000
H     22.1570000000   26.4890000000   22.6100000000
O     24.4240000000   27.5670000000   21.4490000000
C     27.5370000000   20.2250000000   27.0750000000
H     26.4620000000   20.4110000000   27.1480000000
H     27.6830000000   19.1690000000   26.8330000000
H     27.8790000000   20.3900000000   28.1000000000
S     28.3160000000   21.3870000000   25.9320000000
C     27.7970000000   20.5770000000   24.4020000000
H     28.2250000000   21.1820000000   23.5980000000
H     28.2350000000   19.5800000000   24.3070000000
H     26.7100000000   20.5260000000   24.3020000000
O     29.7480000000   20.9590000000   26.0180000000
C     27.4330000000   31.3150000000   29.1660000000
H     27.8490000000   31.7420000000   28.2500000000
H     26.9940000000   30.3650000000   28.8510000000
H     26.6490000000   31.9900000000   29.5170000000
S     28.6710000000   31.1630000000   30.4740000000
C     29.7200000000   29.9200000000   29.6860000000
H     30.3980000000   30.4280000000   28.9960000000
H     30.3130000000   29.3480000000   30.4040000000
H     28.9730000000   29.3550000000   29.1220000000
O     27.9510000000   30.4760000000   31.5930000000
C     33.0740000000   27.3990000000   29.3220000000
H     32.2520000000   27.6000000000   28.6290000000
H     33.5700000000   28.3710000000   29.3780000000
H     33.6600000000   26.5700000000   28.9160000000
S     32.5940000000   26.7870000000   30.9530000000
C     34.2580000000   26.2910000000   31.4510000000
H     34.1830000000   25.7290000000   32.3860000000
H     34.6650000000   25.5420000000   30.7660000000
H     34.9530000000   27.1310000000   31.5240000000
O     32.0690000000   25.4530000000   30.5250000000
