312

C     22.6880000000   15.0660000000   27.3510000000
C     22.5240000000   14.8780000000   28.8680000000
C     23.6450000000   15.6230000000   29.6110000000
C     23.7890000000   17.1150000000   29.2690000000
C     23.9260000000   17.3670000000   27.7590000000
C     22.9220000000   16.5310000000   26.9480000000
H     23.5980000000   15.4690000000   30.6960000000
H     21.6100000000   15.3500000000   29.2480000000
H     23.5260000000   14.4230000000   27.0510000000
H     21.8000000000   14.7190000000   26.8090000000
H     22.9210000000   17.6200000000   29.7100000000
H     24.6550000000   17.4670000000   29.8430000000
H     23.9990000000   18.4300000000   27.4970000000
H     24.9810000000   17.1240000000   27.5800000000
H     21.9920000000   17.1090000000   27.0260000000
H     23.0650000000   16.5430000000   25.8610000000
H     24.5210000000   15.0670000000   29.2550000000
N     22.6110000000   13.4380000000   29.1070000000
H     23.3540000000   12.9050000000   28.6720000000
C     21.7930000000   12.7670000000   29.9920000000
H     21.9720000000   11.6760000000   29.9870000000
O     21.0470000000   13.3310000000   30.7720000000
C     16.0460000000   18.9220000000   32.8600000000
H     16.0620000000   19.5950000000   33.7210000000
H     16.0920000000   19.6890000000   32.0830000000
H     15.1670000000   18.2850000000   32.7370000000
S     17.5120000000   17.8730000000   32.9930000000
C     17.0180000000   17.1300000000   34.5650000000
H     17.8050000000   16.4250000000   34.8460000000
H     16.8630000000   17.9230000000   35.3010000000
H     16.0690000000   16.6210000000   34.3780000000
O     18.6180000000   18.8460000000   33.2630000000
C     21.0730000000   16.9760000000   21.8120000000
H     20.1720000000   17.4380000000   22.2220000000
H     20.8740000000   16.7740000000   20.7560000000
H     21.1870000000   16.0170000000   22.3230000000
S     22.5970000000   17.8700000000   22.1870000000
C     23.7260000000   16.8030000000   21.2640000000
H     23.3390000000   16.3050000000   20.3720000000
H     24.5440000000   17.4080000000   20.8630000000
H     24.1600000000   16.0710000000   21.9510000000
O     22.7480000000   17.2200000000   23.5270000000
C     26.1070000000   20.3740000000   31.0870000000
H     26.0350000000   19.3230000000   31.3790000000
H     27.1770000000   20.5360000000   30.9320000000
H     25.8190000000   21.0370000000   31.9060000000
S     25.0800000000   20.5110000000   29.6060000000
C     25.3760000000   22.2690000000   29.3130000000
H     25.0920000000   22.8760000000   30.1760000000
H     26.3960000000   22.5160000000   29.0070000000
H     24.7200000000   22.5140000000   28.4740000000
O     23.7080000000   20.5460000000   30.2030000000
C     29.3940000000   11.7430000000   24.0300000000
H     28.3510000000   11.4930000000   24.2390000000
H     29.3570000000   12.3780000000   23.1410000000
H     30.0670000000   10.9080000000   23.8200000000
S     30.1840000000   12.6300000000   25.3920000000
C     30.1630000000   11.2520000000   26.5610000000
H     30.7960000000   10.4210000000   26.2390000000
H     30.4540000000   11.6670000000   27.5290000000
H     29.1340000000   10.8870000000   26.6160000000
O     29.0430000000   13.4770000000   25.8630000000
C     29.6440000000   19.4930000000   31.7180000000
H     28.7910000000   18.9840000000   32.1720000000
H     29.4310000000   20.5560000000   31.8580000000
H     29.6550000000   19.2790000000   30.6460000000
S     31.2050000000   19.1710000000   32.5700000000
C     31.0550000000   17.3810000000   32.3710000000
H     31.2960000000   17.1910000000   31.3220000000
H     31.7810000000   16.9500000000   33.0640000000
H     30.0420000000   17.1080000000   32.6800000000
O     30.9100000000   19.4750000000   34.0060000000
C     21.9430000000   19.4470000000   34.4140000000
H     21.5840000000   19.6970000000   33.4130000000
H     21.5550000000   18.4800000000   34.7440000000
H     21.6930000000   20.2320000000   35.1330000000
S     23.7410000000   19.3070000000   34.3050000000
C     23.8700000000   18.0530000000   33.0100000000
H     23.4410000000   18.4500000000   32.0870000000
H     24.8750000000   17.6910000000   32.7800000000
H     23.2960000000   17.1670000000   33.2930000000
O     24.0440000000   18.6870000000   35.6330000000
C     23.3710000000    9.6120000000   32.6810000000
H     23.1750000000    9.2760000000   31.6600000000
H     24.1640000000   10.3640000000   32.7260000000
H     23.7050000000    8.8040000000   33.3370000000
S     21.9620000000   10.4860000000   33.4000000000
C     22.4930000000   10.6770000000   35.1170000000
H     21.9180000000   11.4480000000   35.6370000000
H     22.2520000000    9.7140000000   35.5740000000
H     23.5770000000   10.8100000000   35.1430000000
O     20.8530000000    9.4940000000   33.5650000000
C     20.7710000000   12.2700000000   25.7390000000
H     20.8220000000   11.2940000000   26.2290000000
H     21.7180000000   12.5990000000   25.3040000000
H     20.3920000000   13.0550000000   26.3970000000
S     19.5410000000   12.1730000000   24.4200000000
C     19.6610000000   13.9240000000   23.9890000000
H     19.0170000000   14.1620000000   23.1390000000
H     19.3370000000   14.5790000000   24.8020000000
H     20.6740000000   14.1330000000   23.6360000000
O     18.3120000000   12.2710000000   25.2690000000
C     20.5900000000    7.1990000000   30.9790000000
H     20.3390000000    8.0460000000   30.3360000000
H     20.1940000000    7.5510000000   31.9350000000
H     21.6570000000    7.0200000000   31.1370000000
S     19.8470000000    5.6130000000   30.5330000000
C     18.1450000000    6.1980000000   30.6980000000
H     17.4630000000    5.3450000000   30.6530000000
H     17.9970000000    6.6400000000   31.6870000000
H     17.8310000000    6.8540000000   29.8820000000
O     20.0720000000    4.6880000000   31.6890000000
C     29.1340000000   16.9500000000   26.9600000000
H     28.0560000000   17.0790000000   26.8360000000
H     29.7220000000   17.8710000000   26.9640000000
H     29.3980000000   16.2700000000   26.1460000000
S     29.3370000000   16.2260000000   28.6030000000
C     28.1530000000   17.3880000000   29.3200000000
H     27.1540000000   16.9550000000   29.4180000000
H     28.6090000000   17.5750000000   30.2950000000
H     28.1060000000   18.2980000000   28.7160000000
O     30.7060000000   16.5960000000   29.0820000000
C     18.0880000000   14.6910000000   30.7060000000
H     17.6110000000   15.4860000000   31.2860000000
H     17.7350000000   13.8050000000   31.2390000000
H     19.1520000000   14.9270000000   30.6180000000
S     17.2690000000   14.7150000000   29.0960000000
C     18.6500000000   14.0690000000   28.1260000000
H     19.3070000000   14.9290000000   27.9740000000
H     19.1520000000   13.3160000000   28.7380000000
H     18.2470000000   13.7450000000   27.1630000000
O     17.3050000000   16.2020000000   28.9220000000
C     20.8270000000   16.0190000000   33.1370000000
H     20.3710000000   17.0100000000   33.0650000000
H     21.6840000000   15.7910000000   32.4980000000
H     20.0500000000   15.2840000000   32.9110000000
S     21.1950000000   15.7910000000   34.8910000000
C     21.4370000000   14.0130000000   34.6770000000
H     22.2040000000   14.0140000000   33.8980000000
H     21.8900000000   13.5300000000   35.5460000000
H     20.4520000000   13.6630000000   34.3590000000
O     19.8770000000   15.7990000000   35.5990000000
C     27.5460000000    8.7120000000   31.3380000000
H     27.7350000000    7.9740000000   32.1220000000
H     27.2540000000    9.6620000000   31.7920000000
H     26.7260000000    8.1830000000   30.8460000000
S     28.9990000000    8.8130000000   30.2680000000
C     30.1350000000    9.4880000000   31.5010000000
H     30.4240000000    8.7390000000   32.2420000000
H     31.0580000000    9.8240000000   31.0220000000
H     29.6360000000   10.2890000000   32.0520000000
O     28.7140000000   10.0390000000   29.4570000000
C     18.9320000000   17.3640000000   26.3490000000
H     19.8250000000   17.9940000000   26.3510000000
H     18.5600000000   17.4700000000   27.3710000000
H     19.0900000000   16.3100000000   26.1070000000
S     17.7540000000   17.9810000000   25.1250000000
C     16.6650000000   16.5760000000   25.4470000000
H     16.1970000000   16.7880000000   26.4120000000
H     15.9390000000   16.5100000000   24.6320000000
H     17.2770000000   15.6710000000   25.4690000000
O     18.3300000000   17.4240000000   23.8600000000
C     18.4380000000   19.1930000000   29.3080000000
H     17.9760000000   19.4280000000   28.3450000000
H     18.3900000000   18.1630000000   29.6700000000
H     18.0300000000   19.8510000000   30.0800000000
S     20.2140000000   19.5110000000   29.2110000000
C     20.4510000000   19.8350000000   30.9730000000
H     21.4660000000   20.2270000000   31.0810000000
H     19.7810000000   20.6790000000   31.1530000000
H     20.2750000000   19.0880000000   31.7510000000
O     20.2420000000   20.9080000000   28.6720000000
C     27.8280000000   13.7300000000   33.2590000000
H     28.0680000000   13.7160000000   34.3250000000
H     27.2030000000   12.8700000000   33.0030000000
H     28.7980000000   13.7230000000   32.7560000000
S     26.8980000000   15.2370000000   32.8970000000
C     25.4780000000   14.7380000000   33.8960000000
H     25.1750000000   13.7300000000   33.6030000000
H     25.7690000000   14.7400000000   34.9500000000
H     24.6400000000   15.4190000000   33.7310000000
O     26.6450000000   15.1120000000   31.4270000000
C     29.4710000000   22.9280000000   27.4490000000
H     30.4030000000   23.0130000000   28.0140000000
H     29.6520000000   23.1790000000   26.4010000000
H     28.6440000000   23.4490000000   27.9390000000
S     29.1600000000   21.1480000000   27.4610000000
C     27.6780000000   21.2590000000   26.4330000000
H     26.8940000000   21.7920000000   26.9770000000
H     27.9400000000   21.7710000000   25.5030000000
H     27.4290000000   20.2020000000   26.3110000000
O     28.5580000000   20.8590000000   28.8010000000
C     29.7190000000   16.9380000000   22.1140000000
H     29.9420000000   15.9490000000   21.7070000000
H     29.3080000000   17.6590000000   21.4020000000
H     30.6400000000   17.2740000000   22.5960000000
S     28.4470000000   16.7560000000   23.3850000000
C     27.1510000000   16.7730000000   22.1260000000
H     27.2250000000   17.6980000000   21.5480000000
H     27.2730000000   15.8600000000   21.5370000000
H     26.2120000000   16.7910000000   22.6860000000
O     28.3970000000   18.1170000000   24.0070000000
C     18.3790000000   11.5840000000   34.5300000000
H     17.6450000000   10.7950000000   34.7120000000
H     18.9570000000   11.3380000000   33.6360000000
H     19.0800000000   11.7730000000   35.3480000000
S     17.4580000000   13.1030000000   34.2020000000
C     16.5490000000   13.5260000000   35.7060000000
H     16.6000000000   12.6620000000   36.3730000000
H     16.8980000000   14.4150000000   36.2380000000
H     15.5060000000   13.7290000000   35.4520000000
O     16.4250000000   12.5130000000   33.2930000000
C     24.1370000000   12.6400000000   24.0420000000
H     23.3230000000   13.2210000000   23.6020000000
H     24.2050000000   11.6670000000   23.5470000000
H     24.0240000000   12.5150000000   25.1220000000
S     25.6690000000   13.5500000000   23.7430000000
C     25.1670000000   15.0350000000   24.6430000000
H     24.8190000000   14.6690000000   25.6120000000
H     26.0020000000   15.7380000000   24.7030000000
H     24.3870000000   15.4420000000   23.9950000000
O     25.5760000000   13.9250000000   22.2970000000
C     25.1500000000   25.0770000000   23.2030000000
H     24.1900000000   25.4320000000   23.5880000000
H     25.8030000000   25.9530000000   23.1810000000
H     25.0440000000   24.6710000000   22.1940000000
S     25.8470000000   23.8570000000   24.3400000000
C     25.6470000000   24.7990000000   25.8690000000
H     26.2830000000   24.3580000000   26.6410000000
H     25.8740000000   25.8510000000   25.6780000000
H     24.6330000000   24.6920000000   26.2610000000
O     27.3180000000   23.9010000000   24.0700000000
C     17.9290000000    9.8250000000   30.7820000000
H     17.7370000000   10.6210000000   31.5050000000
H     17.0940000000    9.1330000000   30.6460000000
H     18.8960000000    9.3700000000   31.0120000000
S     18.1470000000   10.8460000000   29.3070000000
C     17.2870000000    9.6690000000   28.2400000000
H     16.2210000000    9.7300000000   28.4730000000
H     17.4890000000    9.9740000000   27.2100000000
H     17.5420000000    8.6130000000   28.3680000000
O     19.6130000000   10.7530000000   29.0150000000
C     29.4500000000   17.9380000000   36.4300000000
H     30.4700000000   17.9070000000   36.0400000000
H     29.0540000000   18.9530000000   36.3400000000
H     29.3050000000   17.5460000000   37.4400000000
S     28.3650000000   16.9590000000   35.3670000000
C     26.8560000000   17.7580000000   35.9570000000
H     27.0490000000   17.9780000000   37.0100000000
H     26.5790000000   18.6000000000   35.3170000000
H     25.9810000000   17.1030000000   35.9680000000
O     28.2140000000   15.5960000000   35.9690000000
C     23.0920000000   21.3330000000   26.4300000000
H     22.0380000000   21.6040000000   26.5280000000
H     23.4340000000   20.6400000000   27.2020000000
H     23.6320000000   22.2830000000   26.4020000000
S     23.1360000000   20.5490000000   24.8020000000
C     24.8820000000   20.0830000000   24.7990000000
H     25.3800000000   21.0320000000   25.0150000000
H     25.0220000000   19.1990000000   25.4270000000
H     25.1490000000   19.7370000000   23.7980000000
O     23.0930000000   21.7360000000   23.8920000000
C     21.3780000000   23.3670000000   29.7750000000
H     20.5500000000   23.2800000000   29.0670000000
H     22.0180000000   22.4870000000   29.6740000000
H     20.9810000000   23.6420000000   30.7560000000
S     22.2040000000   24.8650000000   29.1930000000
C     20.8560000000   26.0680000000   29.2320000000
H     20.2950000000   25.9740000000   28.2980000000
H     20.3160000000   25.8780000000   30.1640000000
H     21.3190000000   27.0460000000   29.0780000000
O     22.4800000000   24.6280000000   27.7410000000
C     19.1700000000   21.7830000000   25.2500000000
H     19.4180000000   21.8210000000   26.3140000000
H     18.0860000000   21.8800000000   25.1400000000
H     19.3780000000   20.9020000000   24.6380000000
S     20.1240000000   23.0400000000   24.3700000000
C     19.4240000000   24.4690000000   25.2260000000
H     19.7880000000   25.3090000000   24.6280000000
H     18.3360000000   24.3720000000   25.2400000000
H     19.8110000000   24.5290000000   26.2460000000
O     19.4000000000   23.1840000000   23.0680000000
C     25.9130000000   12.1400000000   30.1830000000
H     25.5290000000   13.1490000000   30.3540000000
H     25.2460000000   11.3210000000   30.4660000000
H     26.9090000000   12.1390000000   30.6320000000
S     26.1480000000   11.8500000000   28.4150000000
C     26.9250000000   13.4030000000   27.9150000000
H     27.9630000000   13.4890000000   28.2470000000
H     26.9940000000   13.3410000000   26.8250000000
H     26.2600000000   14.2410000000   28.1380000000
O     24.7410000000   12.0180000000   27.9310000000
C     25.5730000000    9.4960000000   23.6960000000
H     25.8210000000    9.6940000000   22.6500000000
H     24.5560000000    9.0990000000   23.7550000000
H     25.7360000000   10.3940000000   24.2960000000
S     26.8240000000    8.3210000000   24.2600000000
C     26.4110000000    8.3710000000   26.0180000000
H     25.4020000000    7.9540000000   26.0740000000
H     27.1770000000    7.8160000000   26.5650000000
H     26.3380000000    9.4320000000   26.2720000000
O     28.1280000000    9.0560000000   24.2230000000
C     20.7510000000    7.5890000000   27.0480000000
H     20.2010000000    8.1720000000   27.7910000000
H     20.6940000000    8.0230000000   26.0460000000
H     20.2960000000    6.6000000000   26.9480000000
S     22.4390000000    7.7170000000   27.6810000000
C     22.6080000000    9.4040000000   27.0580000000
H     22.3870000000    9.4230000000   25.9870000000
H     21.9450000000   10.0820000000   27.6010000000
H     23.6530000000    9.6740000000   27.2300000000
O     23.2060000000    6.7880000000   26.7920000000
