312

C     22.1600000000   19.1360000000   30.5800000000
C     23.0530000000   18.0100000000   31.1260000000
C     23.9610000000   17.5700000000   29.9660000000
C     24.7540000000   18.6850000000   29.2640000000
C     23.7830000000   19.7610000000   28.7500000000
C     22.9380000000   20.2870000000   29.9220000000
H     24.6310000000   16.7490000000   30.2480000000
H     23.6230000000   18.5170000000   31.9140000000
H     21.3730000000   18.7630000000   29.9120000000
H     21.6620000000   19.5770000000   31.4520000000
H     25.5190000000   19.0590000000   29.9550000000
H     25.2810000000   18.1910000000   28.4390000000
H     24.3530000000   20.5560000000   28.2530000000
H     23.1260000000   19.3790000000   27.9600000000
H     23.5580000000   20.7620000000   30.6910000000
H     22.2430000000   21.0380000000   29.5250000000
H     23.2310000000   17.1660000000   29.2540000000
N     22.2930000000   16.9030000000   31.7060000000
H     21.3860000000   16.6560000000   31.3290000000
C     22.7490000000   15.9560000000   32.5990000000
H     22.1000000000   15.0630000000   32.6460000000
O     23.8280000000   16.1160000000   33.1390000000
C     23.7340000000   24.3640000000   30.2030000000
H     24.7790000000   24.2660000000   29.8990000000
H     23.5380000000   23.7950000000   31.1150000000
H     23.0740000000   24.1670000000   29.3530000000
S     23.6470000000   26.0670000000   30.8020000000
C     24.0900000000   26.7440000000   29.1860000000
H     24.9710000000   26.2490000000   28.7700000000
H     23.2110000000   26.7860000000   28.5380000000
H     24.3920000000   27.7600000000   29.4540000000
O     24.8740000000   26.3650000000   31.6050000000
C     19.3790000000   18.3170000000   27.4510000000
H     19.7410000000   18.3940000000   26.4230000000
H     20.1420000000   17.9450000000   28.1390000000
H     18.5270000000   17.6390000000   27.3550000000
S     18.8390000000   19.9900000000   27.8710000000
C     18.1320000000   19.6400000000   29.4970000000
H     17.3600000000   18.8720000000   29.4090000000
H     18.9330000000   19.2180000000   30.1080000000
H     17.7890000000   20.6060000000   29.8770000000
O     17.6990000000   20.3530000000   26.9720000000
C     28.2790000000   15.0740000000   31.7310000000
H     27.4600000000   15.5910000000   31.2240000000
H     28.8860000000   15.8170000000   32.2550000000
H     28.8340000000   14.4430000000   31.0310000000
S     27.2560000000   14.1280000000   32.8820000000
C     26.8300000000   15.5950000000   33.8480000000
H     27.7470000000   16.0340000000   34.2470000000
H     26.1440000000   16.2270000000   33.2770000000
H     26.2400000000   15.2170000000   34.6870000000
O     28.2800000000   13.3940000000   33.6890000000
C     23.6290000000    8.6640000000   29.8390000000
H     24.2940000000    8.0380000000   29.2380000000
H     24.1150000000    8.8380000000   30.8020000000
H     22.6260000000    8.2320000000   29.8960000000
S     23.5340000000   10.3100000000   29.0980000000
C     23.8530000000    9.9200000000   27.3630000000
H     24.1150000000   10.8630000000   26.8760000000
H     24.7540000000    9.3180000000   27.2180000000
H     22.9970000000    9.4030000000   26.9220000000
O     24.7920000000   10.9400000000   29.6080000000
C     29.2130000000   17.5920000000   27.1570000000
H     28.8580000000   17.9880000000   26.2020000000
H     29.9420000000   18.3100000000   27.5410000000
H     29.6310000000   16.5870000000   27.0630000000
S     27.9800000000   17.7210000000   28.4720000000
C     29.1870000000   17.5920000000   29.8110000000
H     29.9390000000   18.3850000000   29.8000000000
H     28.6080000000   17.6150000000   30.7380000000
H     29.6510000000   16.6070000000   29.7100000000
O     27.3480000000   16.3640000000   28.4570000000
C     18.4120000000   13.1810000000   35.3270000000
H     18.4790000000   13.2780000000   34.2400000000
H     18.3990000000   14.0860000000   35.9390000000
H     19.2530000000   12.5470000000   35.6180000000
S     16.9640000000   12.1170000000   35.5170000000
C     15.8600000000   13.3620000000   36.2230000000
H     15.6490000000   13.9910000000   35.3550000000
H     14.9300000000   12.8980000000   36.5620000000
H     16.4290000000   13.9980000000   36.9050000000
O     17.3470000000   11.4110000000   36.7800000000
C     21.7600000000    8.2880000000   33.2180000000
H     21.7500000000    7.4880000000   32.4740000000
H     22.5610000000    9.0120000000   33.0520000000
H     21.8130000000    7.9290000000   34.2490000000
S     20.2280000000    9.1840000000   32.8780000000
C     20.5280000000    9.4670000000   31.1180000000
H     21.5160000000    9.9200000000   31.0100000000
H     20.3370000000    8.6170000000   30.4580000000
H     19.8750000000   10.2910000000   30.8190000000
O     20.3300000000   10.5440000000   33.4950000000
C     17.8300000000   23.6330000000   34.8810000000
H     17.3000000000   23.3310000000   33.9740000000
H     17.3000000000   24.5220000000   35.2340000000
H     18.8710000000   23.9560000000   34.7980000000
S     17.7050000000   22.3240000000   36.1210000000
C     18.2510000000   23.2050000000   37.6010000000
H     19.3380000000   23.3000000000   37.5400000000
H     17.8130000000   24.2050000000   37.5600000000
H     17.9320000000   22.7380000000   38.5360000000
O     18.7490000000   21.2910000000   35.8350000000
C     16.9970000000   10.8280000000   32.0270000000
H     16.1000000000   11.1270000000   32.5770000000
H     16.9570000000    9.7500000000   31.8540000000
H     17.9800000000   10.9940000000   32.4750000000
S     16.9010000000   11.5580000000   30.3760000000
C     15.3090000000   10.8830000000   29.8540000000
H     14.5630000000   11.1600000000   30.6040000000
H     15.0010000000   11.3570000000   28.9190000000
H     15.3330000000    9.7950000000   29.9620000000
O     17.9720000000   10.8550000000   29.6020000000
C     24.1300000000   15.0780000000   27.0730000000
H     24.7640000000   15.6730000000   27.7350000000
H     24.4760000000   14.0960000000   26.7420000000
H     23.9420000000   15.7660000000   26.2450000000
S     22.5330000000   14.8350000000   27.8830000000
C     23.2640000000   13.9200000000   29.2590000000
H     22.5090000000   13.6740000000   30.0100000000
H     23.6570000000   13.0280000000   28.7620000000
H     24.0500000000   14.5330000000   29.7080000000
O     21.8400000000   13.7580000000   27.1090000000
C     25.9950000000   22.1460000000   32.6090000000
H     26.5490000000   21.8800000000   31.7050000000
H     25.3870000000   21.3160000000   32.9780000000
H     25.3370000000   23.0120000000   32.4990000000
S     27.2480000000   22.4950000000   33.8640000000
C     28.1580000000   20.9380000000   33.7480000000
H     27.5300000000   20.0520000000   33.8660000000
H     28.4960000000   20.8650000000   32.7110000000
H     28.9970000000   20.8760000000   34.4450000000
O     26.5210000000   22.5130000000   35.1720000000
C     23.2570000000   22.7470000000   35.5990000000
H     23.6640000000   23.5440000000   36.2250000000
H     23.2130000000   21.7810000000   36.1080000000
H     23.8040000000   22.7150000000   34.6530000000
S     21.5430000000   23.1960000000   35.2430000000
C     21.3420000000   21.8970000000   34.0040000000
H     21.2600000000   20.9550000000   34.5510000000
H     20.4220000000   22.0850000000   33.4430000000
H     22.1410000000   21.9750000000   33.2620000000
O     21.6460000000   24.4190000000   34.3870000000
C     28.8850000000   13.8270000000   26.8860000000
H     28.9100000000   14.3610000000   27.8390000000
H     29.6310000000   13.0280000000   26.8490000000
H     28.8540000000   14.5910000000   26.1040000000
S     27.2240000000   13.1200000000   26.8180000000
C     27.5660000000   11.7350000000   27.9270000000
H     26.9790000000   10.9250000000   27.4860000000
H     28.6400000000   11.5760000000   28.0480000000
H     26.9600000000   12.0190000000   28.7910000000
O     27.2790000000   12.5900000000   25.4190000000
C     30.0250000000   17.0850000000   38.7630000000
H     29.7860000000   16.1740000000   39.3170000000
H     31.0860000000   16.9200000000   38.5560000000
H     29.9190000000   17.9860000000   39.3730000000
S     29.0520000000   16.9360000000   37.2470000000
C     29.2420000000   18.7060000000   36.9380000000
H     28.5210000000   19.0130000000   36.1760000000
H     29.1920000000   19.2860000000   37.8630000000
H     30.2840000000   18.8010000000   36.6230000000
O     27.5790000000   16.9520000000   37.5150000000
C     25.5380000000   13.0080000000   38.6020000000
H     25.0120000000   13.3560000000   39.4950000000
H     24.9020000000   13.1680000000   37.7280000000
H     25.8090000000   11.9500000000   38.6490000000
S     27.1120000000   13.8910000000   38.5170000000
C     27.7460000000   13.1860000000   36.9780000000
H     28.7930000000   13.4680000000   36.8400000000
H     27.4370000000   12.1380000000   36.9690000000
H     27.2650000000   13.6520000000   36.1140000000
O     27.9650000000   13.1770000000   39.5200000000
C     24.4880000000   11.9580000000   33.2800000000
H     25.5350000000   11.7700000000   33.5300000000
H     24.3660000000   11.4130000000   32.3410000000
H     24.2290000000   13.0140000000   33.1640000000
S     23.7340000000   11.0980000000   34.6790000000
C     22.3920000000   12.3080000000   34.6930000000
H     22.1430000000   12.4930000000   33.6450000000
H     21.5440000000   11.8970000000   35.2470000000
H     22.7590000000   13.2020000000   35.2030000000
O     24.7270000000   11.4620000000   35.7380000000
C     19.8950000000   24.3260000000   31.2440000000
H     20.4930000000   24.3480000000   32.1580000000
H     19.9330000000   25.2530000000   30.6650000000
H     18.8680000000   24.1030000000   31.5440000000
S     20.2580000000   22.9410000000   30.1410000000
C     18.7860000000   23.2590000000   29.1430000000
H     18.7810000000   24.3410000000   28.9860000000
H     18.8900000000   22.7730000000   28.1690000000
H     17.8960000000   22.9930000000   29.7180000000
O     19.9350000000   21.7850000000   31.0350000000
C     21.3500000000   15.5320000000   38.6630000000
H     20.4460000000   15.5040000000   39.2760000000
H     22.1830000000   16.1060000000   39.0760000000
H     21.0970000000   15.8380000000   37.6440000000
S     22.1480000000   13.9130000000   38.7600000000
C     20.6770000000   13.0370000000   38.1830000000
H     20.5470000000   13.3110000000   37.1330000000
H     20.8720000000   11.9620000000   38.1480000000
H     19.8880000000   13.2960000000   38.8950000000
O     22.1750000000   13.4510000000   40.1830000000
C     17.9860000000   20.1000000000   32.9060000000
H     18.0430000000   21.0800000000   32.4250000000
H     18.1260000000   20.1920000000   33.9860000000
H     18.8530000000   19.5830000000   32.4860000000
S     16.4890000000   19.2560000000   32.3470000000
C     15.4820000000   20.6330000000   32.9410000000
H     15.8210000000   21.6310000000   32.6500000000
H     14.4270000000   20.4910000000   32.6920000000
H     15.5740000000   20.4920000000   34.0210000000
O     16.4450000000   18.2180000000   33.4260000000
C     18.8840000000   16.2570000000   33.3710000000
H     18.3190000000   17.1180000000   33.0050000000
H     19.7510000000   15.9930000000   32.7600000000
H     18.1900000000   15.4270000000   33.5210000000
S     19.4580000000   16.6940000000   35.0280000000
C     20.4400000000   18.1570000000   34.6270000000
H     21.2590000000   18.1580000000   35.3520000000
H     20.8690000000   18.0820000000   33.6250000000
H     19.8560000000   19.0800000000   34.5950000000
O     20.5450000000   15.6740000000   35.1730000000
C     22.9100000000   24.7200000000   24.7930000000
H     22.3590000000   24.0270000000   24.1520000000
H     22.3130000000   25.5000000000   25.2720000000
H     23.6990000000   25.2720000000   24.2760000000
S     23.6470000000   23.5380000000   25.9440000000
C     22.2000000000   23.4040000000   27.0170000000
H     21.2940000000   23.0640000000   26.5080000000
H     22.4250000000   22.6820000000   27.8070000000
H     22.0270000000   24.4100000000   27.4090000000
O     24.6000000000   24.4270000000   26.6800000000
C     18.9000000000   14.5850000000   26.3290000000
H     19.5040000000   15.4310000000   26.6660000000
H     17.9960000000   14.6110000000   26.9420000000
H     19.4700000000   13.6530000000   26.2940000000
S     18.5060000000   14.8900000000   24.5920000000
C     20.1930000000   15.2260000000   24.0380000000
H     20.8060000000   15.5930000000   24.8650000000
H     20.4400000000   14.2450000000   23.6230000000
H     20.1550000000   15.9910000000   23.2590000000
O     18.0050000000   16.2980000000   24.6790000000
C     24.7160000000   19.3100000000   35.2060000000
H     25.5380000000   18.8590000000   34.6460000000
H     23.7270000000   19.1580000000   34.7640000000
H     24.8410000000   20.3560000000   35.5000000000
S     24.4470000000   18.5070000000   36.8030000000
C     23.8980000000   16.8520000000   36.3310000000
H     22.9380000000   17.0260000000   35.8380000000
H     24.5580000000   16.3850000000   35.5940000000
H     23.8720000000   16.2480000000   37.2410000000
O     23.1370000000   19.1270000000   37.1770000000
C     22.2720000000   18.3390000000   23.7630000000
H     22.5440000000   18.3760000000   22.7050000000
H     23.0130000000   17.7150000000   24.2690000000
H     21.2690000000   17.9680000000   23.9870000000
S     22.4160000000   19.9660000000   24.5360000000
C     24.1790000000   19.9290000000   24.9280000000
H     24.3600000000   19.4170000000   25.8770000000
H     24.8010000000   19.4460000000   24.1700000000
H     24.5390000000   20.9500000000   25.0780000000
O     21.7750000000   20.0170000000   25.8880000000
C     20.5710000000   27.1480000000   26.1690000000
H     20.1200000000   26.2890000000   25.6650000000
H     19.9920000000   27.9920000000   25.7850000000
H     21.6620000000   27.2080000000   26.1700000000
S     19.9580000000   27.0360000000   27.8650000000
C     20.9320000000   28.4620000000   28.3970000000
H     20.5450000000   29.4180000000   28.0360000000
H     20.9460000000   28.5480000000   29.4860000000
H     21.9860000000   28.2960000000   28.1600000000
O     20.7150000000   25.9260000000   28.5250000000
C     29.3960000000   21.1900000000   26.7590000000
H     29.7830000000   22.2110000000   26.7880000000
H     29.2930000000   20.7010000000   27.7320000000
H     30.1160000000   20.5870000000   26.2010000000
S     27.7900000000   21.5730000000   26.0240000000
C     27.0120000000   22.0010000000   27.5970000000
H     27.6510000000   22.7420000000   28.0840000000
H     26.0340000000   22.4420000000   27.3880000000
H     26.9440000000   21.1210000000   28.2410000000
O     27.3060000000   20.1780000000   25.7820000000
C     26.7550000000   17.4320000000   24.6580000000
H     27.6410000000   18.0680000000   24.5860000000
H     26.0280000000   17.8320000000   23.9470000000
H     26.3300000000   17.5210000000   25.6610000000
S     27.0880000000   15.7300000000   24.1520000000
C     28.2850000000   16.0530000000   22.8370000000
H     29.1630000000   16.4980000000   23.3120000000
H     28.5820000000   15.1160000000   22.3590000000
H     27.9080000000   16.7610000000   22.0940000000
O     25.8890000000   15.3690000000   23.3320000000
C     17.8130000000   15.0510000000   29.4780000000
H     17.2960000000   14.1690000000   29.0910000000
H     17.4880000000   15.4050000000   30.4600000000
H     17.6930000000   15.9300000000   28.8390000000
S     19.5650000000   14.6280000000   29.6010000000
C     19.6020000000   13.5890000000   31.0790000000
H     20.6350000000   13.4940000000   31.4240000000
H     18.9710000000   13.9250000000   31.9050000000
H     19.3150000000   12.5790000000   30.7730000000
O     20.0970000000   15.9310000000   30.1110000000
C     31.5110000000   22.1630000000   29.5190000000
H     31.3160000000   23.1810000000   29.1730000000
H     32.5670000000   22.0620000000   29.7830000000
H     31.3600000000   21.4450000000   28.7090000000
S     30.3700000000   21.8210000000   30.8780000000
C     31.2610000000   20.3200000000   31.3440000000
H     32.0840000000   20.7180000000   31.9430000000
H     30.4960000000   19.7450000000   31.8710000000
H     31.5460000000   19.7800000000   30.4380000000
O     29.0690000000   21.3890000000   30.2770000000
