262

C     25.1820000000   30.4930000000   25.6820000000
C     25.9580000000   30.1470000000   26.9640000000
C     25.8430000000   28.6380000000   27.2400000000
C     26.4060000000   27.9240000000   26.0000000000
C     25.6530000000   28.2370000000   24.6970000000
C     25.6990000000   29.7520000000   24.4380000000
H     26.2410000000   28.3090000000   28.2080000000
H     26.9930000000   30.4870000000   26.8380000000
H     24.1050000000   30.4280000000   25.8810000000
H     25.3580000000   31.5640000000   25.5240000000
H     27.4320000000   28.2490000000   25.7910000000
H     26.4680000000   26.8450000000   26.1880000000
H     25.9580000000   27.6520000000   23.8210000000
H     24.6050000000   27.9560000000   24.8600000000
H     26.6850000000   30.1570000000   24.1790000000
H     25.0360000000   30.0440000000   23.6160000000
H     24.7770000000   28.3810000000   27.2160000000
N     25.4060000000   30.9220000000   28.0740000000
H     24.7120000000   30.5140000000   28.6890000000
C     25.9420000000   32.0970000000   28.5570000000
H     25.5010000000   32.4860000000   29.4930000000
O     26.9370000000   32.6050000000   28.0730000000
C     24.6420000000   27.4860000000   21.3050000000
H     25.6940000000   27.7270000000   21.1330000000
H     24.1100000000   27.8270000000   20.4140000000
H     24.2650000000   28.0310000000   22.1740000000
S     24.2030000000   25.7430000000   21.4920000000
C     25.1310000000   25.1710000000   20.0510000000
H     26.1800000000   25.2970000000   20.3300000000
H     24.8250000000   24.1440000000   19.8380000000
H     24.8490000000   25.8300000000   19.2260000000
O     22.7380000000   25.4890000000   21.3160000000
C     28.9890000000   28.2820000000   23.3550000000
H     28.3460000000   29.1600000000   23.4630000000
H     28.6620000000   27.4770000000   22.6910000000
H     29.2240000000   27.8280000000   24.3210000000
S     30.6480000000   28.8230000000   22.8850000000
C     31.2860000000   27.1390000000   22.7400000000
H     32.2500000000   27.1540000000   23.2560000000
H     30.6410000000   26.4670000000   23.3120000000
H     31.2910000000   26.8900000000   21.6760000000
O     31.2970000000   29.4390000000   24.0850000000
C     28.4380000000   32.7640000000   24.6980000000
H     29.0190000000   32.5770000000   25.6050000000
H     27.5480000000   33.2100000000   25.1490000000
H     28.1640000000   31.8990000000   24.0880000000
S     29.1990000000   33.9640000000   23.5830000000
C     30.9360000000   33.5290000000   23.8290000000
H     31.3200000000   33.6440000000   24.8460000000
H     31.0650000000   32.4890000000   23.5210000000
H     31.5630000000   34.0890000000   23.1310000000
O     28.8770000000   35.2350000000   24.3060000000
C     28.6970000000   30.9340000000   20.3990000000
H     28.8960000000   29.9460000000   20.8210000000
H     28.9570000000   31.0410000000   19.3430000000
H     29.3720000000   31.6530000000   20.8700000000
S     26.9740000000   31.4010000000   20.6750000000
C     26.9850000000   32.6680000000   19.3870000000
H     28.0090000000   32.8090000000   19.0320000000
H     26.3680000000   32.3080000000   18.5600000000
H     26.4740000000   33.5730000000   19.7260000000
O     27.0960000000   32.2710000000   21.8880000000
C     28.4060000000   36.6000000000   35.6990000000
H     27.3720000000   36.9250000000   35.8410000000
H     28.8360000000   36.2150000000   36.6270000000
H     28.9990000000   37.3600000000   35.1860000000
S     28.1330000000   35.1860000000   34.6070000000
C     27.0820000000   36.1300000000   33.4810000000
H     26.1890000000   36.4660000000   34.0150000000
H     27.7040000000   36.9550000000   33.1250000000
H     26.8060000000   35.4930000000   32.6370000000
O     27.3200000000   34.2920000000   35.4910000000
C     30.8350000000   30.3270000000   26.7700000000
H     30.6280000000   31.0580000000   25.9830000000
H     31.8730000000   30.5490000000   27.0270000000
H     30.8020000000   29.3040000000   26.3850000000
S     29.5700000000   30.6130000000   28.0280000000
C     30.7400000000   31.5070000000   29.0750000000
H     30.9700000000   32.5250000000   28.7520000000
H     30.4050000000   31.5360000000   30.1150000000
H     31.6040000000   30.8380000000   29.0940000000
O     29.7140000000   29.2150000000   28.5430000000
C     23.3280000000   24.1390000000   29.3720000000
H     22.5350000000   23.6440000000   28.8060000000
H     24.2340000000   23.5850000000   29.1160000000
H     23.0900000000   24.1480000000   30.4390000000
S     23.5220000000   25.8260000000   28.7520000000
C     21.7530000000   26.1040000000   28.5100000000
H     21.1260000000   25.8600000000   29.3720000000
H     21.5450000000   27.1190000000   28.1650000000
H     21.5760000000   25.5010000000   27.6160000000
O     24.0110000000   25.6420000000   27.3490000000
C     26.6800000000   24.8930000000   23.6690000000
H     26.5810000000   25.5340000000   22.7900000000
H     26.5340000000   25.4680000000   24.5860000000
H     27.6740000000   24.4410000000   23.7280000000
S     25.4850000000   23.5390000000   23.7320000000
C     25.5470000000   23.2290000000   25.5110000000
H     24.8010000000   23.8850000000   25.9660000000
H     25.3740000000   22.1620000000   25.6680000000
H     26.5760000000   23.4440000000   25.8110000000
O     26.3570000000   22.4490000000   23.1920000000
C     24.8860000000   35.2380000000   25.9980000000
H     24.8090000000   34.6220000000   26.8970000000
H     25.8320000000   35.7840000000   25.9560000000
H     24.0070000000   35.8870000000   26.0380000000
S     24.7820000000   34.1550000000   24.5550000000
C     25.4230000000   35.3250000000   23.3370000000
H     26.2700000000   35.8860000000   23.7410000000
H     25.7230000000   34.7990000000   22.4270000000
H     24.6330000000   36.0360000000   23.0810000000
O     23.3170000000   34.1810000000   24.2500000000
C     25.1160000000   24.8440000000   32.0430000000
H     25.3660000000   23.8260000000   32.3520000000
H     24.0300000000   24.9660000000   32.0340000000
H     25.4800000000   25.1670000000   31.0640000000
S     25.9690000000   26.0180000000   33.1190000000
C     27.5650000000   25.1730000000   33.1370000000
H     28.2130000000   25.5990000000   32.3670000000
H     27.9670000000   25.3760000000   34.1330000000
H     27.4170000000   24.1080000000   32.9390000000
O     25.4430000000   25.8520000000   34.5110000000
C     26.8680000000   20.8700000000   28.3400000000
H     27.9480000000   21.0000000000   28.4490000000
H     26.7460000000   19.9380000000   27.7830000000
H     26.4940000000   21.7550000000   27.8190000000
S     25.9840000000   20.5990000000   29.8930000000
C     24.3270000000   20.1190000000   29.3570000000
H     23.9930000000   20.9400000000   28.7170000000
H     24.3800000000   19.2520000000   28.6940000000
H     23.6180000000   20.0230000000   30.1830000000
O     25.7710000000   21.8910000000   30.6170000000
C     18.9170000000   28.1140000000   28.8290000000
H     19.7770000000   28.7440000000   29.0700000000
H     19.2750000000   27.2160000000   28.3180000000
H     18.2950000000   28.7240000000   28.1680000000
S     18.2140000000   27.6470000000   30.4270000000
C     18.0770000000   29.3430000000   31.0350000000
H     17.6910000000   29.2890000000   32.0560000000
H     19.0760000000   29.7860000000   31.0050000000
H     17.3930000000   29.9830000000   30.4720000000
O     19.3120000000   26.9470000000   31.1660000000
C     29.0470000000   34.5830000000   30.3180000000
H     29.3050000000   35.0080000000   31.2920000000
H     27.9790000000   34.7800000000   30.1970000000
H     29.2370000000   33.5080000000   30.2730000000
S     29.9630000000   35.5440000000   29.0920000000
C     29.1600000000   34.6590000000   27.7360000000
H     29.7960000000   34.6620000000   26.8470000000
H     28.9990000000   33.5930000000   27.9130000000
H     28.2160000000   35.1630000000   27.5120000000
O     31.3110000000   34.9040000000   29.2050000000
C     19.1850000000   26.0990000000   23.7580000000
H     18.1630000000   25.7470000000   23.9220000000
H     19.1370000000   27.1140000000   23.3530000000
H     19.7350000000   25.4640000000   23.0590000000
S     20.0830000000   26.1670000000   25.3250000000
C     21.6410000000   26.6250000000   24.5330000000
H     22.3640000000   26.0950000000   25.1590000000
H     21.8280000000   26.3170000000   23.5010000000
H     21.9500000000   27.6720000000   24.5950000000
O     20.3410000000   24.7000000000   25.4760000000
C     20.8310000000   32.2390000000   32.5180000000
H     21.7350000000   32.2370000000   33.1320000000
H     20.3980000000   33.2430000000   32.4920000000
H     20.0160000000   31.5940000000   32.8540000000
S     21.3410000000   31.6840000000   30.8760000000
C     22.3620000000   33.1190000000   30.4730000000
H     21.8530000000   34.0090000000   30.8540000000
H     23.3220000000   32.9730000000   30.9750000000
H     22.5280000000   33.2300000000   29.3990000000
O     20.1360000000   31.9210000000   30.0210000000
C     22.0860000000   28.2610000000   31.7960000000
H     21.7410000000   29.2640000000   32.0620000000
H     21.7470000000   28.1470000000   30.7640000000
H     21.8440000000   27.4460000000   32.4830000000
S     23.8760000000   28.4320000000   31.6270000000
C     24.1360000000   29.0850000000   33.2920000000
H     23.2070000000   29.5250000000   33.6600000000
H     24.4420000000   28.2740000000   33.9580000000
H     24.9750000000   29.7810000000   33.2100000000
O     24.1590000000   29.5920000000   30.7230000000
C     24.4420000000   33.9560000000   33.6700000000
H     23.8160000000   33.0680000000   33.7840000000
H     24.5880000000   34.2370000000   32.6240000000
H     25.3980000000   33.8450000000   34.1880000000
S     23.5460000000   35.3480000000   34.3940000000
C     23.7560000000   34.8370000000   36.1150000000
H     23.2900000000   35.5740000000   36.7740000000
H     23.2400000000   33.8850000000   36.2630000000
H     24.8180000000   34.8630000000   36.3710000000
O     22.1290000000   34.9230000000   34.1660000000
C     28.1760000000   24.3350000000   18.1660000000
H     28.4210000000   23.2710000000   18.1190000000
H     27.1830000000   24.4630000000   18.6040000000
H     28.3550000000   24.8950000000   17.2450000000
S     29.3520000000   24.9430000000   19.3970000000
C     28.9200000000   23.8190000000   20.7440000000
H     29.0900000000   24.3340000000   21.6930000000
H     27.8900000000   23.4810000000   20.6090000000
H     29.6280000000   22.9880000000   20.7920000000
O     28.9050000000   26.1890000000   20.0960000000
C     31.3620000000   26.2580000000   26.7640000000
H     30.6540000000   25.5610000000   27.2190000000
H     31.5960000000   27.1190000000   27.3950000000
H     31.1320000000   26.6810000000   25.7830000000
S     32.9090000000   25.3340000000   26.6260000000
C     33.3330000000   25.2340000000   28.3800000000
H     33.6930000000   26.1890000000   28.7710000000
H     32.5190000000   24.7750000000   28.9470000000
H     34.1680000000   24.5440000000   28.5240000000
O     33.9270000000   26.2480000000   26.0190000000
C     23.4090000000   32.2840000000   21.7930000000
H     22.7470000000   32.5820000000   22.6100000000
H     24.4340000000   32.1430000000   22.1450000000
H     23.3000000000   32.9520000000   20.9350000000
S     22.8770000000   30.6780000000   21.1580000000
C     21.2800000000   31.3190000000   20.6060000000
H     20.6980000000   31.9360000000   21.2960000000
H     21.4660000000   31.7490000000   19.6190000000
H     20.5950000000   30.4740000000   20.5020000000
O     22.4890000000   29.9500000000   22.4080000000
C     21.7480000000   31.1960000000   27.2050000000
H     22.7060000000   31.7030000000   27.0670000000
H     20.8860000000   31.8680000000   27.1950000000
H     21.8270000000   30.6140000000   28.1260000000
S     21.3230000000   30.1190000000   25.8180000000
C     20.6910000000   31.4650000000   24.7920000000
H     19.7700000000   31.7510000000   25.3070000000
H     21.5080000000   32.1860000000   24.7090000000
H     20.5490000000   30.9730000000   23.8270000000
O     20.1280000000   29.3530000000   26.2940000000
C     28.2760000000   30.8650000000   34.3200000000
H     28.2530000000   30.2810000000   35.2440000000
H     29.0310000000   31.6550000000   34.3340000000
H     27.2960000000   31.3400000000   34.2300000000
S     28.5930000000   29.8060000000   32.8910000000
C     27.6860000000   30.7510000000   31.6460000000
H     26.7440000000   31.1320000000   32.0500000000
H     28.3200000000   31.6090000000   31.4110000000
H     27.4780000000   30.1210000000   30.7770000000
O     27.7730000000   28.6440000000   33.3570000000
C     28.2880000000   26.0930000000   29.2110000000
H     29.2920000000   26.2210000000   29.6250000000
H     28.2320000000   26.8480000000   28.4230000000
H     27.5380000000   26.4270000000   29.9330000000
S     27.8530000000   24.4700000000   28.5470000000
C     28.5800000000   23.5840000000   29.9430000000
H     28.0730000000   23.9150000000   30.8530000000
H     28.2490000000   22.5560000000   29.7790000000
H     29.6370000000   23.8440000000   30.0450000000
O     28.8130000000   24.2840000000   27.4140000000
C     25.8050000000   37.3610000000   30.5510000000
H     26.8680000000   37.1660000000   30.7130000000
H     25.7020000000   38.4130000000   30.2730000000
H     25.2190000000   37.1440000000   31.4480000000
S     25.3920000000   36.2780000000   29.1650000000
C     23.6250000000   36.6430000000   29.0640000000
H     23.5840000000   37.6620000000   28.6700000000
H     23.1710000000   35.9180000000   28.3840000000
H     23.2870000000   36.6670000000   30.1030000000
O     25.5250000000   34.8870000000   29.7020000000
