302

C     20.9930000000   21.1370000000   28.6510000000
C     21.7320000000   20.3580000000   29.7510000000
C     22.6760000000   19.3520000000   29.0720000000
C     23.6750000000   20.0520000000   28.1360000000
C     22.9290000000   20.8470000000   27.0520000000
C     21.9680000000   21.8550000000   27.7030000000
H     23.1440000000   18.7120000000   29.8310000000
H     22.4500000000   20.9460000000   30.3350000000
H     20.3170000000   20.5080000000   28.0580000000
H     20.3420000000   21.8720000000   29.1400000000
H     24.2390000000   20.7680000000   28.7460000000
H     24.4500000000   19.3860000000   27.7380000000
H     23.7110000000   21.3930000000   26.5110000000
H     22.4120000000   20.1680000000   26.3620000000
H     22.6030000000   22.5380000000   28.2790000000
H     21.3580000000   22.3860000000   26.9630000000
H     22.1120000000   18.6630000000   28.4310000000
N     20.7460000000   19.6790000000   30.5890000000
H     20.0700000000   19.0900000000   30.1170000000
C     20.5850000000   19.9330000000   31.9350000000
H     19.7410000000   19.3760000000   32.3820000000
O     21.3080000000   20.6590000000   32.5940000000
C     25.3730000000   24.7200000000   28.8790000000
H     26.1250000000   24.2290000000   28.2550000000
H     25.2030000000   24.0520000000   29.7270000000
H     24.4380000000   25.0020000000   28.3880000000
S     26.2270000000   26.2040000000   29.4570000000
C     24.9390000000   26.6950000000   30.6260000000
H     24.9130000000   26.0920000000   31.5380000000
H     25.0810000000   27.7310000000   30.9420000000
H     24.0520000000   26.6750000000   29.9870000000
O     26.0380000000   27.2710000000   28.4250000000
C     16.9350000000   25.9050000000   24.7940000000
H     16.3040000000   25.3510000000   25.4940000000
H     17.3190000000   26.7810000000   25.3230000000
H     16.2810000000   26.2810000000   24.0040000000
S     18.2140000000   24.8810000000   24.0320000000
C     19.3040000000   26.1700000000   23.3880000000
H     19.5460000000   26.8550000000   24.2050000000
H     20.1610000000   25.7410000000   22.8630000000
H     18.7090000000   26.5980000000   22.5770000000
O     17.5790000000   24.3450000000   22.7870000000
C     17.5440000000   20.4940000000   21.9910000000
H     18.3050000000   21.0090000000   21.4000000000
H     17.4270000000   19.4480000000   21.6970000000
H     16.5770000000   20.9990000000   21.9190000000
S     18.0660000000   20.5950000000   23.7180000000
C     19.5750000000   19.6180000000   23.5270000000
H     20.2170000000   19.9710000000   22.7160000000
H     20.1470000000   19.6810000000   24.4560000000
H     19.4500000000   18.5500000000   23.3330000000
O     17.1010000000   19.7190000000   24.4550000000
C     24.7900000000   16.2090000000   30.0070000000
H     25.7690000000   16.2190000000   29.5210000000
H     24.6230000000   17.1670000000   30.5070000000
H     24.7620000000   15.3230000000   30.6460000000
S     23.5700000000   16.0450000000   28.6840000000
C     22.2230000000   16.0540000000   29.8880000000
H     22.3460000000   16.9140000000   30.5500000000
H     21.2630000000   16.0060000000   29.3670000000
H     22.5030000000   15.1900000000   30.4960000000
O     23.7860000000   14.6010000000   28.3520000000
C     24.1790000000   12.5050000000   31.7750000000
H     24.3460000000   11.8590000000   32.6410000000
H     24.8430000000   12.2040000000   30.9610000000
H     24.1850000000   13.5690000000   32.0230000000
S     22.4800000000   12.3360000000   31.1840000000
C     21.6050000000   12.5480000000   32.7510000000
H     20.6200000000   12.0960000000   32.6040000000
H     22.2050000000   12.1540000000   33.5750000000
H     21.5000000000   13.6200000000   32.9350000000
O     22.3520000000   10.8970000000   30.7920000000
C     30.6330000000   17.1400000000   30.1200000000
H     31.5000000000   16.4940000000   29.9630000000
H     30.6690000000   17.9880000000   29.4320000000
H     30.5490000000   17.5180000000   31.1420000000
S     29.1840000000   16.0990000000   29.8340000000
C     29.4210000000   15.6680000000   28.0950000000
H     29.4610000000   16.5460000000   27.4460000000
H     30.3120000000   15.0440000000   27.9880000000
H     28.5770000000   15.0550000000   27.7700000000
O     27.9820000000   16.9900000000   29.8820000000
C     25.0460000000   22.2250000000   35.9430000000
H     26.0670000000   21.8390000000   35.9970000000
H     24.7130000000   21.9770000000   34.9320000000
H     25.0110000000   23.3000000000   36.1390000000
S     23.8580000000   21.5780000000   37.1400000000
C     24.6380000000   22.3400000000   38.5810000000
H     25.6450000000   21.9160000000   38.5890000000
H     24.7770000000   23.4240000000   38.5950000000
H     24.0670000000   21.9730000000   39.4380000000
O     24.2650000000   20.1390000000   37.2060000000
C     20.8700000000   23.3210000000   37.2940000000
H     20.7520000000   22.4090000000   37.8850000000
H     20.8610000000   23.1080000000   36.2220000000
H     21.8380000000   23.7720000000   37.5270000000
S     19.6410000000   24.6370000000   37.4510000000
C     18.2160000000   23.8110000000   36.7080000000
H     18.2130000000   22.7660000000   37.0290000000
H     17.2470000000   24.2460000000   36.9660000000
H     18.2850000000   23.7390000000   35.6200000000
O     20.0930000000   25.5910000000   36.3900000000
C     18.4920000000   20.3750000000   35.1790000000
H     18.7690000000   19.3190000000   35.1240000000
H     19.2610000000   20.9330000000   34.6380000000
H     18.5770000000   20.7610000000   36.1980000000
S     16.7880000000   20.5500000000   34.6030000000
C     16.2210000000   18.9600000000   35.2470000000
H     17.0010000000   18.1930000000   35.2370000000
H     15.8760000000   19.1700000000   36.2620000000
H     15.3210000000   18.7140000000   34.6780000000
O     16.9380000000   20.1330000000   33.1730000000
C     16.7930000000   20.6910000000   29.7520000000
H     16.0040000000   20.0260000000   29.3930000000
H     17.7480000000   20.3400000000   29.3510000000
H     16.8460000000   20.8520000000   30.8320000000
S     16.6160000000   22.2990000000   28.9480000000
C     17.3380000000   22.0120000000   27.3160000000
H     17.1780000000   22.8720000000   26.6620000000
H     18.4230000000   21.8820000000   27.2920000000
H     16.9290000000   21.1630000000   26.7620000000
O     17.6260000000   23.0670000000   29.7430000000
C     19.6320000000   16.9150000000   26.1360000000
H     19.5930000000   17.1590000000   27.2000000000
H     20.6220000000   17.0610000000   25.6970000000
H     18.9500000000   17.4520000000   25.4710000000
S     19.2500000000   15.1490000000   26.1440000000
C     20.8310000000   14.4580000000   26.6800000000
H     21.6100000000   15.2130000000   26.5430000000
H     20.8520000000   14.2190000000   27.7470000000
H     21.0840000000   13.5360000000   26.1510000000
O     19.3060000000   14.7700000000   24.6970000000
C     26.6390000000   19.7350000000   30.7910000000
H     26.2890000000   18.9060000000   31.4120000000
H     25.9670000000   20.0560000000   29.9900000000
H     27.6030000000   19.4860000000   30.3390000000
S     26.7700000000   21.2290000000   31.7970000000
C     25.0060000000   21.2830000000   32.1890000000
H     24.6990000000   22.3150000000   32.3750000000
H     24.4470000000   21.0080000000   31.2910000000
H     24.7680000000   20.6850000000   33.0720000000
O     26.7880000000   22.3930000000   30.8550000000
C     16.3310000000   16.9690000000   26.2370000000
H     16.8830000000   16.3010000000   25.5710000000
H     16.5540000000   18.0230000000   26.0490000000
H     16.4810000000   16.8520000000   27.3140000000
S     14.6010000000   16.8400000000   25.7310000000
C     13.9140000000   17.6630000000   27.1860000000
H     13.8800000000   16.8850000000   27.9540000000
H     14.4790000000   18.5470000000   27.4920000000
H     12.9360000000   18.0090000000   26.8410000000
O     14.3350000000   15.4280000000   26.1510000000
C     20.2940000000   24.6080000000   32.7850000000
H     19.5440000000   23.8260000000   32.6420000000
H     21.3350000000   24.2810000000   32.8460000000
H     20.1890000000   25.0710000000   33.7690000000
S     20.1980000000   25.7810000000   31.4140000000
C     20.5120000000   24.5280000000   30.1500000000
H     20.3910000000   24.8840000000   29.1230000000
H     21.5230000000   24.1520000000   30.3240000000
H     19.9100000000   23.6360000000   30.3360000000
O     21.5550000000   26.4120000000   31.4540000000
C     23.2630000000   25.3050000000   34.7010000000
H     23.3750000000   25.0320000000   33.6490000000
H     23.6300000000   24.5770000000   35.4290000000
H     22.2130000000   25.3740000000   34.9970000000
S     24.1260000000   26.8750000000   34.9370000000
C     23.0260000000   27.8970000000   33.9310000000
H     23.4370000000   28.9070000000   34.0070000000
H     23.0190000000   27.5610000000   32.8910000000
H     22.0580000000   27.9990000000   34.4280000000
O     25.3590000000   26.7850000000   34.0920000000
C     17.1950000000   14.7470000000   34.9440000000
H     16.6780000000   13.7930000000   34.8130000000
H     17.3650000000   14.9520000000   36.0040000000
H     16.6450000000   15.5380000000   34.4270000000
S     18.8770000000   14.7650000000   34.2850000000
C     19.6230000000   13.8280000000   35.6380000000
H     19.2000000000   12.8230000000   35.5560000000
H     20.7120000000   13.8330000000   35.5480000000
H     19.3070000000   14.2140000000   36.6100000000
O     19.3260000000   16.1920000000   34.3270000000
C     23.6160000000   17.9880000000   33.7250000000
H     24.6570000000   17.6820000000   33.5970000000
H     23.2070000000   18.6240000000   32.9350000000
H     23.5640000000   18.6640000000   34.5830000000
S     22.5640000000   16.5600000000   34.0680000000
C     23.5080000000   16.0790000000   35.5320000000
H     24.5310000000   15.7550000000   35.3260000000
H     23.4550000000   16.8560000000   36.3000000000
H     22.9970000000   15.2180000000   35.9700000000
O     22.8970000000   15.5360000000   33.0280000000
C     23.6800000000   22.2970000000   23.5890000000
H     24.0290000000   23.0630000000   24.2870000000
H     23.3590000000   21.3590000000   24.0490000000
H     24.5330000000   22.0320000000   22.9590000000
S     22.3430000000   22.8190000000   22.4920000000
C     21.1760000000   22.9840000000   23.8610000000
H     20.2110000000   23.2150000000   23.4040000000
H     20.9840000000   22.0830000000   24.4500000000
H     21.5150000000   23.8100000000   24.4910000000
O     21.6990000000   21.6380000000   21.8360000000
C     20.6780000000   18.3690000000   37.2800000000
H     21.1080000000   17.9530000000   36.3660000000
H     19.8800000000   19.0750000000   37.0360000000
H     21.5230000000   18.8170000000   37.8080000000
S     19.8640000000   17.0410000000   38.1970000000
C     19.2670000000   17.9740000000   39.6250000000
H     20.0910000000   18.0320000000   40.3400000000
H     18.9990000000   18.9850000000   39.3080000000
H     18.4560000000   17.4400000000   40.1270000000
O     20.9020000000   16.1760000000   38.8410000000
C     27.7010000000   25.4480000000   25.9490000000
H     26.7330000000   25.9550000000   25.9810000000
H     28.0990000000   25.2610000000   26.9500000000
H     28.3950000000   26.1180000000   25.4350000000
S     27.4190000000   24.0010000000   24.9040000000
C     26.7750000000   25.0960000000   23.6200000000
H     25.9630000000   25.7680000000   23.9100000000
H     27.5520000000   25.7350000000   23.1930000000
H     26.4850000000   24.4250000000   22.8070000000
O     26.1670000000   23.3810000000   25.4420000000
C     26.8290000000   16.0270000000   32.8910000000
H     25.8380000000   16.3680000000   32.5820000000
H     27.2570000000   15.3840000000   32.1180000000
H     26.6690000000   15.6040000000   33.8870000000
S     27.8600000000   17.4950000000   33.1100000000
C     29.1220000000   16.7490000000   34.1670000000
H     28.7370000000   16.5950000000   35.1780000000
H     29.6190000000   15.8460000000   33.8040000000
H     29.7630000000   17.6300000000   34.2450000000
O     27.0040000000   18.3000000000   34.0380000000
C     23.5650000000   18.8480000000   22.5680000000
H     24.3930000000   19.5260000000   22.7900000000
H     23.5460000000   18.3400000000   21.6000000000
H     22.6790000000   19.4690000000   22.7190000000
S     23.3910000000   17.4540000000   23.7050000000
C     21.8860000000   16.7950000000   22.9530000000
H     21.2270000000   17.5480000000   22.5130000000
H     22.2160000000   16.0230000000   22.2530000000
H     21.4540000000   16.3780000000   23.8660000000
O     22.9400000000   18.0790000000   24.9890000000
C     21.2440000000   27.8450000000   26.3890000000
H     20.4660000000   28.1510000000   27.0930000000
H     22.1160000000   28.5030000000   26.4000000000
H     20.8070000000   27.6600000000   25.4040000000
S     21.9650000000   26.2790000000   26.9310000000
C     23.0510000000   26.0930000000   25.4990000000
H     23.5560000000   25.1240000000   25.5140000000
H     22.4780000000   26.1850000000   24.5730000000
H     23.7500000000   26.9300000000   25.5700000000
O     20.9640000000   25.1800000000   26.7480000000
C     27.7830000000   18.9770000000   25.3690000000
H     28.2400000000   19.2530000000   24.4150000000
H     27.1280000000   19.8100000000   25.6360000000
H     28.4750000000   18.9980000000   26.2150000000
S     27.1260000000   17.3340000000   25.0050000000
C     26.4320000000   17.0390000000   26.6480000000
H     26.3810000000   15.9580000000   26.8020000000
H     27.1660000000   17.5690000000   27.2610000000
H     25.5290000000   17.6370000000   26.7960000000
O     28.4230000000   16.5860000000   25.0210000000
C     17.8340000000   26.5390000000   28.6080000000
H     17.9510000000   25.6250000000   29.1970000000
H     17.7490000000   26.1220000000   27.6010000000
H     18.7540000000   27.1270000000   28.6490000000
S     16.3170000000   27.4490000000   28.9760000000
C     15.3460000000   25.9430000000   28.7470000000
H     15.6540000000   25.0510000000   29.2970000000
H     14.3090000000   26.1840000000   28.9980000000
H     15.3800000000   25.7320000000   27.6750000000
O     16.0660000000   28.2550000000   27.7390000000
C     17.1580000000   17.5090000000   31.6820000000
H     17.9560000000   17.8150000000   32.3650000000
H     16.4220000000   18.3120000000   31.5960000000
H     16.5860000000   16.6950000000   32.1340000000
S     17.7010000000   16.9890000000   30.0390000000
C     18.6420000000   15.5420000000   30.5740000000
H     19.2040000000   15.1570000000   29.7190000000
H     19.4340000000   15.8770000000   31.2490000000
H     18.1180000000   14.7820000000   31.1580000000
O     18.7220000000   18.0120000000   29.6500000000
C     14.6670000000   23.5740000000   33.8340000000
H     15.1620000000   24.0660000000   34.6750000000
H     13.6200000000   23.8200000000   34.0290000000
H     14.6820000000   22.4810000000   33.8730000000
S     15.2470000000   24.0650000000   32.1950000000
C     16.9850000000   23.9760000000   32.6810000000
H     17.0670000000   24.5660000000   33.5970000000
H     17.2460000000   22.9160000000   32.7430000000
H     17.5230000000   24.3770000000   31.8180000000
O     14.9500000000   25.5300000000   32.1220000000
C     28.7170000000   22.0960000000   27.4350000000
H     29.2390000000   21.9340000000   26.4880000000
H     27.7290000000   21.6290000000   27.4320000000
H     28.6770000000   23.1770000000   27.5920000000
S     29.6960000000   21.4890000000   28.8270000000
C     31.2300000000   22.3710000000   28.4610000000
H     31.0960000000   23.4260000000   28.2090000000
H     31.8240000000   22.2280000000   29.3670000000
H     31.5860000000   21.8220000000   27.5850000000
O     30.0560000000   20.2080000000   28.1410000000
