242

C     27.2390000000   19.6210000000   24.7330000000
C     27.8870000000   20.5920000000   25.7330000000
C     29.1530000000   20.0060000000   26.3800000000
C     30.1710000000   19.5220000000   25.3350000000
C     29.5090000000   18.7660000000   24.1720000000
C     28.2860000000   19.5110000000   23.6120000000
H     29.5130000000   20.6780000000   27.1690000000
H     28.2070000000   21.5120000000   25.2300000000
H     26.9940000000   18.6360000000   25.1470000000
H     26.4030000000   20.1820000000   24.2950000000
H     30.6310000000   20.4300000000   24.9250000000
H     31.0180000000   18.9570000000   25.7430000000
H     30.1300000000   18.6200000000   23.2790000000
H     29.2120000000   17.8010000000   24.6010000000
H     28.4830000000   20.5350000000   23.2710000000
H     27.8970000000   18.9220000000   22.7730000000
H     28.8800000000   19.0840000000   26.9080000000
N     27.0040000000   20.9590000000   26.8390000000
H     26.7020000000   20.1710000000   27.3990000000
C     26.7580000000   22.2610000000   27.2220000000
H     26.0530000000   22.3740000000   28.0650000000
O     27.3010000000   23.2370000000   26.7350000000
C     25.2390000000   16.6640000000   22.4050000000
H     24.6650000000   15.7450000000   22.2580000000
H     26.2440000000   16.6000000000   21.9810000000
H     25.3510000000   16.9860000000   23.4430000000
S     24.2850000000   17.9150000000   21.5150000000
C     23.2720000000   18.2850000000   22.9650000000
H     22.9960000000   17.4200000000   23.5740000000
H     23.8890000000   18.9460000000   23.5780000000
H     22.3980000000   18.8060000000   22.5640000000
O     23.3850000000   17.0890000000   20.6500000000
C     31.0900000000   21.1160000000   30.5340000000
H     32.0300000000   20.6120000000   30.2960000000
H     30.3030000000   20.8300000000   29.8310000000
H     31.1130000000   22.2090000000   30.5380000000
S     30.5500000000   20.5510000000   32.1630000000
C     31.8510000000   21.4380000000   33.0500000000
H     32.5810000000   20.8110000000   33.5680000000
H     32.4360000000   22.0390000000   32.3490000000
H     31.3600000000   22.0930000000   33.7750000000
O     30.9540000000   19.1140000000   32.0520000000
C     34.6620000000   21.3390000000   27.6860000000
H     35.4750000000   20.6450000000   27.4600000000
H     34.8100000000   21.7900000000   28.6710000000
H     33.7760000000   20.7190000000   27.8470000000
S     34.5400000000   22.5330000000   26.3350000000
C     34.2470000000   21.3800000000   24.9750000000
H     33.4210000000   21.7880000000   24.3880000000
H     35.2020000000   21.3030000000   24.4490000000
H     33.9040000000   20.4480000000   25.4320000000
O     35.9470000000   22.9690000000   26.0730000000
C     28.3310000000   14.5990000000   24.1220000000
H     27.8670000000   15.0970000000   23.2660000000
H     27.5660000000   14.0230000000   24.6490000000
H     28.8350000000   15.3590000000   24.7250000000
S     29.4730000000   13.4880000000   23.2690000000
C     30.1790000000   12.8030000000   24.7840000000
H     29.4430000000   12.2050000000   25.3270000000
H     31.1030000000   12.2500000000   24.5960000000
H     30.5750000000   13.6930000000   25.2800000000
O     30.5200000000   14.3750000000   22.6710000000
C     24.7520000000   22.4760000000   22.6360000000
H     24.6670000000   22.3950000000   21.5490000000
H     25.5720000000   23.1860000000   22.7690000000
H     25.0560000000   21.5140000000   23.0550000000
S     23.1520000000   23.0630000000   23.2370000000
C     23.6460000000   23.0430000000   24.9750000000
H     22.8060000000   23.2180000000   25.6510000000
H     24.0690000000   22.0410000000   25.0840000000
H     24.4820000000   23.7400000000   25.0740000000
O     22.4670000000   21.7330000000   23.1800000000
C     24.7120000000   11.6510000000   25.6460000000
H     24.2960000000   11.7070000000   26.6550000000
H     24.1760000000   11.0110000000   24.9410000000
H     25.7680000000   11.3990000000   25.7780000000
S     24.6710000000   13.2730000000   24.8500000000
C     22.8900000000   13.3410000000   24.5520000000
H     22.6630000000   12.5360000000   23.8490000000
H     22.4050000000   13.2590000000   25.5280000000
H     22.6140000000   14.3060000000   24.1190000000
O     25.4170000000   13.0400000000   23.5730000000
C     28.9650000000   13.7350000000   28.3360000000
H     28.2160000000   12.9500000000   28.2070000000
H     29.3670000000   13.9190000000   27.3370000000
H     29.8240000000   13.4840000000   28.9630000000
S     28.2260000000   15.2740000000   28.9300000000
C     29.6720000000   16.3500000000   28.8010000000
H     29.4270000000   17.2250000000   29.4090000000
H     30.4930000000   15.8550000000   29.3270000000
H     30.0130000000   16.5830000000   27.7890000000
O     28.1770000000   15.0530000000   30.4090000000
C     28.9040000000   25.6100000000   22.1210000000
H     29.6180000000   25.8280000000   22.9200000000
H     29.4150000000   25.6300000000   21.1550000000
H     28.1750000000   26.4230000000   22.0890000000
S     28.0660000000   24.0150000000   22.2660000000
C     29.5280000000   22.9750000000   22.4800000000
H     29.4670000000   21.9920000000   22.0060000000
H     30.4690000000   23.4500000000   22.1910000000
H     29.6800000000   22.9150000000   23.5610000000
O     27.6900000000   23.6670000000   20.8600000000
C     30.4020000000   23.3650000000   26.7790000000
H     29.6470000000   23.0380000000   26.0590000000
H     31.2270000000   22.6500000000   26.8250000000
H     29.9950000000   23.6960000000   27.7380000000
S     31.2760000000   24.6740000000   25.8920000000
C     29.9650000000   25.9180000000   25.8560000000
H     30.3040000000   26.8340000000   25.3640000000
H     29.0820000000   25.5490000000   25.3280000000
H     29.7670000000   26.1530000000   26.9050000000
O     31.5950000000   24.1560000000   24.5250000000
C     24.8300000000   18.2920000000   31.0410000000
H     24.5500000000   19.3260000000   31.2550000000
H     24.0270000000   17.7740000000   30.5100000000
H     24.9730000000   17.8170000000   32.0150000000
S     26.3240000000   18.0250000000   30.0600000000
C     27.4910000000   18.7570000000   31.2310000000
H     26.9990000000   19.5720000000   31.7670000000
H     27.8260000000   18.0000000000   31.9450000000
H     28.2940000000   19.2190000000   30.6520000000
O     26.3170000000   19.0290000000   28.9500000000
C     36.6630000000   17.4420000000   21.3490000000
H     37.3770000000   17.9270000000   20.6790000000
H     37.0040000000   16.5410000000   21.8670000000
H     35.7620000000   17.3070000000   20.7450000000
S     36.0030000000   18.6230000000   22.5470000000
C     34.4870000000   17.7210000000   22.9400000000
H     34.6670000000   16.7300000000   23.3630000000
H     33.8680000000   18.2480000000   23.6710000000
H     33.9030000000   17.5610000000   22.0300000000
O     35.5580000000   19.7760000000   21.7020000000
C     29.7710000000   20.3130000000   19.8480000000
H     29.7300000000   19.9750000000   20.8860000000
H     29.1830000000   21.1890000000   19.5640000000
H     29.5510000000   19.5430000000   19.1040000000
S     31.5050000000   20.6900000000   19.5040000000
C     32.2510000000   19.2650000000   20.3260000000
H     31.7580000000   19.1100000000   21.2890000000
H     32.1060000000   18.4300000000   19.6350000000
H     33.2980000000   19.5410000000   20.4780000000
O     31.9550000000   21.8150000000   20.3830000000
C     34.6930000000   16.3410000000   28.1240000000
H     35.1500000000   17.0400000000   28.8300000000
H     34.2960000000   15.4910000000   28.6840000000
H     35.3630000000   15.9030000000   27.3800000000
S     33.2590000000   17.2120000000   27.4510000000
C     33.0360000000   16.1240000000   26.0250000000
H     32.2170000000   16.3880000000   25.3510000000
H     33.9990000000   16.1300000000   25.5100000000
H     32.9290000000   15.1030000000   26.4000000000
O     33.7940000000   18.5030000000   26.9160000000
C     24.0360000000   25.7530000000   27.2140000000
H     23.1990000000   25.8770000000   26.5220000000
H     24.0250000000   24.7060000000   27.5250000000
H     23.8170000000   26.4660000000   28.0130000000
S     25.4630000000   26.1190000000   26.1670000000
C     26.5620000000   26.6650000000   27.4940000000
H     27.3070000000   27.3840000000   27.1450000000
H     26.0560000000   27.1120000000   28.3540000000
H     27.1540000000   25.8040000000   27.8170000000
O     25.0520000000   27.3660000000   25.4480000000
C     26.5080000000   12.2470000000   20.3980000000
H     25.9160000000   11.6390000000   19.7080000000
H     27.4940000000   11.7820000000   20.4770000000
H     26.0350000000   12.1680000000   21.3800000000
S     26.6060000000   14.0000000000   19.9740000000
C     24.8210000000   14.2800000000   19.9260000000
H     24.7770000000   15.2730000000   19.4700000000
H     24.3820000000   13.4930000000   19.3080000000
H     24.4630000000   14.2430000000   20.9580000000
O     27.0090000000   14.1110000000   18.5360000000
C     22.7950000000   20.2710000000   27.0910000000
H     21.8370000000   20.7970000000   27.0950000000
H     23.3630000000   20.6470000000   26.2360000000
H     22.5610000000   19.2030000000   27.0720000000
S     23.6310000000   20.8860000000   28.5700000000
C     22.3010000000   20.7530000000   29.7860000000
H     22.4790000000   21.4450000000   30.6140000000
H     21.3080000000   20.9140000000   29.3570000000
H     22.3090000000   19.7150000000   30.1260000000
O     23.5940000000   22.3720000000   28.3960000000
C     18.8780000000   24.1140000000   31.4340000000
H     18.9060000000   25.0980000000   30.9600000000
H     18.5260000000   23.3250000000   30.7640000000
H     18.2500000000   24.1110000000   32.3290000000
S     20.5950000000   23.8390000000   31.9240000000
C     21.0600000000   23.9550000000   30.1820000000
H     20.6350000000   23.0320000000   29.7790000000
H     20.6310000000   24.8220000000   29.6750000000
H     22.1490000000   23.9050000000   30.0960000000
O     20.7070000000   22.3920000000   32.2910000000
C     33.9780000000   23.4140000000   21.8270000000
H     33.2000000000   23.0820000000   22.5200000000
H     33.4430000000   23.8050000000   20.9570000000
H     34.5250000000   22.5090000000   21.5520000000
S     35.1090000000   24.6320000000   22.5360000000
C     33.8670000000   25.9170000000   22.8080000000
H     33.0840000000   25.8840000000   22.0460000000
H     33.3630000000   25.4900000000   23.6790000000
H     34.2040000000   26.9540000000   22.8750000000
O     35.7840000000   24.9390000000   21.2360000000
C     26.3850000000   23.7440000000   30.3110000000
H     26.3400000000   24.6160000000   30.9690000000
H     26.2170000000   24.1130000000   29.2960000000
H     25.6040000000   23.0610000000   30.6550000000
S     27.9140000000   22.8250000000   30.6000000000
C     27.5950000000   22.8560000000   32.3780000000
H     26.7860000000   22.1310000000   32.4990000000
H     28.5290000000   22.6280000000   32.8990000000
H     27.2660000000   23.8200000000   32.7740000000
O     28.9270000000   23.9190000000   30.4670000000
C     24.7550000000   15.4500000000   28.4290000000
H     25.2650000000   14.6370000000   27.9060000000
H     25.3790000000   15.7880000000   29.2610000000
H     23.8940000000   15.0070000000   28.9350000000
S     24.2980000000   16.7940000000   27.3100000000
C     22.5910000000   16.2710000000   27.0290000000
H     21.9040000000   16.6650000000   27.7820000000
H     22.3280000000   16.5750000000   26.0120000000
H     22.6230000000   15.1800000000   27.0690000000
O     25.0720000000   16.5030000000   26.0620000000
C     25.7750000000   17.3100000000   17.7310000000
H     26.6810000000   16.7760000000   18.0280000000
H     24.8330000000   16.8890000000   18.0930000000
H     25.8050000000   17.5260000000   16.6600000000
S     25.7880000000   18.9320000000   18.5280000000
C     24.1750000000   19.5150000000   17.9580000000
H     23.3930000000   18.9560000000   18.4770000000
H     24.0250000000   20.5970000000   17.9420000000
H     24.1210000000   19.2170000000   16.9070000000
O     26.8320000000   19.7950000000   17.8920000000
C     31.8560000000   28.3190000000   27.4510000000
H     31.9040000000   28.4160000000   26.3640000000
H     32.4950000000   29.0420000000   27.9650000000
H     32.1400000000   27.2910000000   27.6940000000
S     30.2290000000   28.9280000000   27.9480000000
C     30.3610000000   30.6100000000   27.3000000000
H     31.3100000000   31.0830000000   27.5670000000
H     30.3720000000   30.6570000000   26.2080000000
H     29.5110000000   31.1800000000   27.6830000000
O     30.3390000000   29.2580000000   29.4040000000
