282

C     24.2620000000   28.4940000000   26.4410000000
C     25.1180000000   29.7670000000   26.5380000000
C     26.5920000000   29.4230000000   26.2660000000
C     26.7650000000   28.7800000000   24.8800000000
C     25.9170000000   27.5020000000   24.7820000000
C     24.4460000000   27.8570000000   25.0540000000
H     27.1710000000   30.3380000000   26.4400000000
H     24.8660000000   30.4590000000   25.7240000000
H     24.6300000000   27.7260000000   27.1330000000
H     23.1810000000   28.6240000000   26.5800000000
H     26.3880000000   29.4920000000   24.1350000000
H     27.8100000000   28.4950000000   24.7110000000
H     26.0140000000   27.2900000000   23.7100000000
H     26.2860000000   26.6880000000   25.4180000000
H     24.2220000000   28.4670000000   24.1700000000
H     23.9110000000   26.9080000000   24.9320000000
H     26.9250000000   28.7610000000   27.0750000000
N     24.8470000000   30.3230000000   27.8620000000
H     24.8380000000   29.6490000000   28.6180000000
C     24.8560000000   31.6820000000   28.0940000000
H     24.7970000000   32.0050000000   29.1500000000
O     25.0020000000   32.3770000000   27.1040000000
C     24.1800000000   24.4550000000   20.0730000000
H     23.7060000000   24.7910000000   19.1470000000
H     25.2690000000   24.5220000000   20.0000000000
H     23.8620000000   23.4510000000   20.3660000000
S     23.7910000000   25.7130000000   21.3100000000
C     22.0910000000   25.9450000000   20.7430000000
H     21.3990000000   25.1450000000   21.0170000000
H     21.6630000000   26.7880000000   21.2910000000
H     22.1360000000   26.3760000000   19.7390000000
O     24.6250000000   26.8870000000   20.9020000000
C     31.5510000000   28.1440000000   26.2070000000
H     32.2230000000   28.9340000000   26.5520000000
H     30.5300000000   28.4750000000   26.4130000000
H     31.7690000000   27.2150000000   26.7400000000
S     31.5440000000   27.8540000000   24.4240000000
C     30.7340000000   29.3620000000   23.8460000000
H     31.3890000000   30.2370000000   23.8410000000
H     30.3780000000   29.0290000000   22.8680000000
H     29.8750000000   29.5910000000   24.4820000000
O     30.4370000000   26.8480000000   24.3700000000
C     29.8240000000   34.6790000000   24.8450000000
H     30.2050000000   35.6780000000   24.6200000000
H     30.4810000000   34.0170000000   25.4160000000
H     29.6730000000   34.3490000000   23.8130000000
S     28.3030000000   34.9030000000   25.7940000000
C     27.7500000000   33.1830000000   25.7600000000
H     28.0460000000   32.6110000000   24.8770000000
H     28.1650000000   32.6530000000   26.6210000000
H     26.6660000000   33.1420000000   25.6300000000
O     27.3040000000   35.4240000000   24.8080000000
C     29.3830000000   31.0910000000   18.9330000000
H     29.8990000000   30.1280000000   18.9010000000
H     28.3510000000   30.9690000000   19.2700000000
H     29.1950000000   31.4780000000   17.9280000000
S     30.4200000000   32.2980000000   19.7900000000
C     30.3080000000   31.6520000000   21.4740000000
H     30.8010000000   30.6770000000   21.4560000000
H     30.7780000000   32.3870000000   22.1330000000
H     29.2210000000   31.6630000000   21.5790000000
O     29.5030000000   33.4770000000   19.6990000000
C     28.5840000000   34.0800000000   34.0310000000
H     27.8890000000   33.7080000000   34.7890000000
H     28.6190000000   33.3400000000   33.2280000000
H     29.5440000000   34.3690000000   34.4660000000
S     27.9560000000   35.6450000000   33.3820000000
C     27.6110000000   36.4440000000   34.9660000000
H     27.1580000000   37.4270000000   34.8150000000
H     26.9280000000   35.8430000000   35.5720000000
H     28.5590000000   36.6360000000   35.4750000000
O     26.6460000000   35.3960000000   32.7010000000
C     32.7450000000   32.8840000000   28.9460000000
H     32.0620000000   32.8290000000   29.7970000000
H     33.7660000000   32.6640000000   29.2700000000
H     32.7260000000   33.8690000000   28.4740000000
S     32.1360000000   31.7450000000   27.6810000000
C     33.4560000000   32.1830000000   26.5280000000
H     33.5520000000   31.3410000000   25.8380000000
H     33.1450000000   33.1160000000   26.0510000000
H     34.3300000000   32.2660000000   27.1800000000
O     30.9270000000   32.4990000000   27.2230000000
C     24.0640000000   24.5530000000   30.8890000000
H     24.6780000000   24.1960000000   31.7190000000
H     23.1950000000   25.0320000000   31.3460000000
H     23.7250000000   23.7840000000   30.1910000000
S     25.0280000000   25.7280000000   29.9110000000
C     24.1090000000   25.2980000000   28.4150000000
H     24.2350000000   24.2520000000   28.1220000000
H     23.0740000000   25.5890000000   28.6070000000
H     24.5810000000   25.8690000000   27.6120000000
O     26.3100000000   24.9820000000   29.7070000000
C     23.9990000000   23.6180000000   25.0430000000
H     22.9830000000   23.8830000000   25.3450000000
H     24.5520000000   23.2360000000   25.9050000000
H     24.5220000000   24.4430000000   24.5540000000
S     24.0260000000   22.2450000000   23.8680000000
C     23.7790000000   20.7900000000   24.9100000000
H     23.4010000000   20.9620000000   25.9210000000
H     23.1820000000   20.1210000000   24.2840000000
H     24.7430000000   20.3080000000   25.0900000000
O     25.4320000000   22.0460000000   23.3920000000
C     27.6590000000   27.0070000000   21.5460000000
H     27.4170000000   27.8610000000   22.1850000000
H     26.8620000000   26.2620000000   21.4880000000
H     28.5660000000   26.6010000000   21.9990000000
S     28.1980000000   27.4540000000   19.8800000000
C     27.5650000000   25.9470000000   19.1090000000
H     27.5660000000   25.0650000000   19.7530000000
H     26.5940000000   26.1450000000   18.6480000000
H     28.2810000000   25.7140000000   18.3160000000
O     29.6780000000   27.2300000000   19.8920000000
C     23.1720000000   34.4210000000   25.0770000000
H     22.7340000000   34.1910000000   26.0520000000
H     24.0520000000   33.8090000000   24.8640000000
H     23.4480000000   35.4680000000   24.9280000000
S     21.8720000000   34.1670000000   23.8470000000
C     22.4500000000   35.3980000000   22.6580000000
H     22.5810000000   36.3510000000   23.1780000000
H     23.4440000000   35.1690000000   22.2630000000
H     21.7510000000   35.5270000000   21.8280000000
O     20.7030000000   34.7070000000   24.6090000000
C     28.5340000000   26.0640000000   33.8100000000
H     28.4930000000   25.7820000000   34.8650000000
H     28.6600000000   25.0940000000   33.3220000000
H     29.4110000000   26.7130000000   33.7390000000
S     26.9640000000   26.8510000000   33.3830000000
C     27.1670000000   28.2440000000   34.5160000000
H     26.1640000000   28.5610000000   34.8120000000
H     27.6940000000   27.9460000000   35.4270000000
H     27.7500000000   29.0160000000   34.0070000000
O     26.0210000000   25.9480000000   34.1150000000
C     19.1110000000   27.3720000000   32.1770000000
H     18.3610000000   28.0780000000   31.8120000000
H     18.6370000000   26.4350000000   32.4810000000
H     19.5530000000   27.7770000000   33.0910000000
S     20.3500000000   27.0970000000   30.8900000000
C     19.1690000000   26.8650000000   29.5420000000
H     18.6790000000   25.9150000000   29.7680000000
H     18.4030000000   27.6430000000   29.5890000000
H     19.6170000000   26.8210000000   28.5460000000
O     20.7220000000   25.6730000000   31.1640000000
C     21.0830000000   25.1570000000   24.0610000000
H     21.1770000000   24.0690000000   24.0240000000
H     20.3120000000   25.4220000000   23.3340000000
H     22.0790000000   25.5420000000   23.8270000000
S     20.4810000000   25.5440000000   25.7200000000
C     20.1770000000   27.2910000000   25.3710000000
H     19.3670000000   27.5350000000   24.6780000000
H     19.9220000000   27.6280000000   26.3790000000
H     21.0990000000   27.7950000000   25.0700000000
O     21.7500000000   25.6960000000   26.4990000000
C     19.5820000000   30.8290000000   31.0700000000
H     19.3170000000   29.8340000000   30.7050000000
H     18.7780000000   31.4680000000   30.6970000000
H     20.5580000000   31.1410000000   30.6890000000
S     19.6720000000   30.8800000000   32.8740000000
C     20.4780000000   32.4660000000   33.1910000000
H     21.4460000000   32.5400000000   32.6890000000
H     19.7860000000   33.2000000000   32.7710000000
H     20.5330000000   32.5990000000   34.2750000000
O     20.7230000000   29.9120000000   33.3210000000
C     19.2200000000   23.3520000000   21.6340000000
H     18.3270000000   22.7510000000   21.4430000000
H     19.2600000000   23.5490000000   22.7090000000
H     19.2210000000   24.2740000000   21.0470000000
S     20.6740000000   22.3620000000   21.2200000000
C     20.3340000000   20.8520000000   22.1520000000
H     19.8690000000   21.2140000000   23.0730000000
H     19.5850000000   20.3150000000   21.5650000000
H     21.2840000000   20.3280000000   22.2880000000
O     21.8610000000   23.0540000000   21.8130000000
C     22.8390000000   29.2960000000   30.8230000000
H     21.9840000000   29.3550000000   31.5000000000
H     22.8620000000   30.1760000000   30.1750000000
H     22.7750000000   28.4570000000   30.1250000000
S     24.3600000000   29.2220000000   31.7970000000
C     24.2610000000   30.8800000000   32.5090000000
H     25.0620000000   30.9320000000   33.2510000000
H     24.4300000000   31.6110000000   31.7150000000
H     23.2700000000   30.9340000000   32.9680000000
O     25.3460000000   29.5870000000   30.7320000000
C     24.6850000000   33.6250000000   34.5740000000
H     23.8950000000   33.1430000000   33.9940000000
H     25.6260000000   33.6250000000   34.0180000000
H     24.9120000000   33.1410000000   35.5280000000
S     24.1050000000   35.3180000000   34.8220000000
C     23.4260000000   35.1210000000   36.4850000000
H     24.2720000000   35.0220000000   37.1690000000
H     22.8450000000   35.9550000000   36.8850000000
H     22.9400000000   34.1470000000   36.5830000000
O     22.9430000000   35.0660000000   33.9110000000
C     28.5870000000   20.5800000000   19.5080000000
H     28.4420000000   20.1590000000   18.5100000000
H     29.6400000000   20.5620000000   19.8030000000
H     28.0140000000   19.9940000000   20.2310000000
S     28.1110000000   22.3230000000   19.5260000000
C     28.0990000000   22.4610000000   21.3280000000
H     28.8660000000   21.8070000000   21.7490000000
H     28.2780000000   23.4910000000   21.6490000000
H     27.1150000000   22.1080000000   21.6470000000
O     26.7220000000   22.4020000000   18.9720000000
C     29.5630000000   25.5310000000   30.6150000000
H     29.9980000000   25.0570000000   29.7310000000
H     30.1890000000   25.2500000000   31.4650000000
H     28.5050000000   25.3020000000   30.7650000000
S     29.9150000000   27.2680000000   30.2630000000
C     28.3880000000   27.5720000000   29.3450000000
H     28.4940000000   28.4400000000   28.6890000000
H     28.1360000000   26.7150000000   28.7160000000
H     27.5880000000   27.7180000000   30.0760000000
O     30.9220000000   27.2090000000   29.1560000000
C     20.7080000000   29.4040000000   20.9520000000
H     21.0190000000   28.6410000000   21.6700000000
H     19.6210000000   29.2940000000   20.9850000000
H     21.2080000000   29.2260000000   19.9970000000
S     21.3620000000   30.9280000000   21.6700000000
C     23.1400000000   30.6810000000   21.4680000000
H     23.3650000000   29.6210000000   21.6060000000
H     23.3730000000   30.9450000000   20.4330000000
H     23.6570000000   31.2720000000   22.2290000000
O     21.1880000000   30.6350000000   23.1270000000
C     24.2560000000   38.2580000000   25.9520000000
H     25.2240000000   38.2040000000   25.4470000000
H     23.7620000000   37.3020000000   25.7620000000
H     23.7170000000   39.1420000000   25.6000000000
S     24.7150000000   38.2210000000   27.7000000000
C     25.4760000000   36.5850000000   27.6210000000
H     24.7520000000   35.8850000000   28.0450000000
H     25.6280000000   36.4170000000   26.5510000000
H     26.3880000000   36.5670000000   28.2240000000
O     23.4500000000   37.9880000000   28.4660000000
C     21.5090000000   20.5680000000   28.1310000000
H     21.5780000000   21.1890000000   27.2340000000
H     22.2390000000   19.7790000000   27.9290000000
H     20.4740000000   20.2510000000   28.2780000000
S     22.2800000000   21.6080000000   29.3920000000
C     21.2280000000   23.0480000000   29.0990000000
H     20.2370000000   22.6730000000   29.3640000000
H     21.5610000000   23.7600000000   29.8590000000
H     21.2730000000   23.4260000000   28.0740000000
O     23.5300000000   21.9630000000   28.6480000000
C     21.6070000000   30.7140000000   27.6970000000
H     22.1000000000   29.8060000000   28.0520000000
H     22.2480000000   31.0800000000   26.8910000000
H     21.7630000000   31.4640000000   28.4770000000
S     19.9010000000   30.6110000000   27.1120000000
C     19.5020000000   32.2570000000   27.7420000000
H     19.1520000000   32.1060000000   28.7660000000
H     20.2870000000   33.0150000000   27.6720000000
H     18.7830000000   32.5920000000   26.9900000000
O     19.3510000000   29.7230000000   28.1840000000
C     28.7440000000   23.6340000000   27.4660000000
H     27.8750000000   24.1420000000   27.8900000000
H     28.3140000000   22.6630000000   27.2080000000
H     29.5660000000   23.4510000000   28.1630000000
S     29.5530000000   24.4730000000   26.0850000000
C     28.1290000000   24.1870000000   25.0110000000
H     28.4740000000   24.5920000000   24.0560000000
H     27.7550000000   23.1610000000   24.9730000000
H     27.4440000000   24.9390000000   25.4130000000
O     30.4220000000   23.3340000000   25.6500000000
C     29.0430000000   31.0470000000   29.4630000000
H     29.8730000000   30.3550000000   29.2990000000
H     28.0980000000   30.7210000000   29.0200000000
H     29.3250000000   31.9870000000   28.9830000000
S     28.9950000000   31.4140000000   31.2320000000
C     27.5070000000   32.4100000000   30.9880000000
H     26.9290000000   32.7170000000   31.8630000000
H     27.7020000000   33.3230000000   30.4200000000
H     26.7600000000   31.9170000000   30.3600000000
O     30.0690000000   32.4530000000   31.3030000000
C     21.9180000000   34.7830000000   29.1630000000
H     20.8460000000   34.6180000000   29.0310000000
H     22.0760000000   35.8600000000   29.2600000000
H     22.4120000000   34.3440000000   28.2920000000
S     22.5220000000   34.0090000000   30.6790000000
C     24.2140000000   34.5940000000   30.4360000000
H     24.6180000000   34.0890000000   29.5550000000
H     24.2420000000   35.6620000000   30.2020000000
H     24.7220000000   34.3050000000   31.3600000000
O     22.5680000000   32.5380000000   30.4050000000
