262

C     24.1120000000   31.5790000000   26.0580000000
C     25.3560000000   30.7090000000   26.3030000000
C     25.4140000000   29.6390000000   25.2010000000
C     25.4430000000   30.2860000000   23.8070000000
C     24.1690000000   31.0920000000   23.5070000000
C     23.9700000000   32.1260000000   24.6280000000
H     26.2620000000   28.9560000000   25.3340000000
H     26.2580000000   31.3290000000   26.2360000000
H     23.2100000000   31.0080000000   26.3070000000
H     24.0560000000   32.4540000000   26.7180000000
H     26.3610000000   30.8760000000   23.6920000000
H     25.5230000000   29.4260000000   23.1320000000
H     24.3600000000   31.5490000000   22.5290000000
H     23.3420000000   30.3720000000   23.5000000000
H     24.7080000000   32.9280000000   24.5120000000
H     22.9380000000   32.4940000000   24.5870000000
H     24.4650000000   29.0970000000   25.2960000000
N     25.2820000000   30.1590000000   27.6560000000
H     25.3440000000   29.1490000000   27.6850000000
C     25.5430000000   30.8080000000   28.8440000000
H     25.4850000000   30.1170000000   29.7040000000
O     25.5960000000   32.0230000000   28.9180000000
C     20.9520000000   24.7460000000   21.1240000000
H     19.8650000000   24.8410000000   21.0600000000
H     21.3610000000   24.6550000000   20.1150000000
H     21.2520000000   23.8680000000   21.7020000000
S     21.5020000000   26.2480000000   21.9660000000
C     21.2960000000   27.3220000000   20.5270000000
H     20.2440000000   27.5960000000   20.4140000000
H     21.8860000000   28.2390000000   20.5950000000
H     21.5500000000   26.8470000000   19.5750000000
O     22.9800000000   26.0530000000   22.1020000000
C     28.5890000000   32.4860000000   30.7890000000
H     28.6520000000   33.2340000000   31.5830000000
H     28.5930000000   32.9480000000   29.7990000000
H     27.7760000000   31.7610000000   30.8830000000
S     30.1180000000   31.5230000000   30.7850000000
C     31.2030000000   32.8360000000   30.1790000000
H     30.9640000000   33.7310000000   30.7600000000
H     32.2060000000   32.4640000000   30.4020000000
H     31.1810000000   33.0450000000   29.1070000000
O     30.0250000000   30.5730000000   29.6330000000
C     27.9680000000   33.8600000000   24.8810000000
H     26.9040000000   34.0390000000   25.0580000000
H     28.5630000000   34.6950000000   24.5040000000
H     28.0750000000   32.9830000000   24.2380000000
S     28.6330000000   33.3720000000   26.4890000000
C     27.8650000000   34.7200000000   27.4160000000
H     27.9710000000   34.4840000000   28.4780000000
H     28.4190000000   35.6350000000   27.1920000000
H     26.8090000000   34.6290000000   27.1470000000
O     30.0490000000   33.8540000000   26.4450000000
C     28.1270000000   30.7640000000   18.9500000000
H     28.6680000000   30.0680000000   18.3030000000
H     27.0890000000   30.4440000000   19.0690000000
H     28.1130000000   31.7670000000   18.5180000000
S     28.9950000000   30.8070000000   20.5340000000
C     27.9570000000   32.1510000000   21.1510000000
H     28.3170000000   32.9970000000   20.5610000000
H     26.9390000000   31.8820000000   20.8560000000
H     28.0990000000   32.2670000000   22.2280000000
O     30.3130000000   31.4160000000   20.1690000000
C     31.1140000000   28.3800000000   23.9570000000
H     31.8970000000   28.8720000000   23.3740000000
H     31.4640000000   28.0830000000   24.9490000000
H     30.7980000000   27.4350000000   23.5090000000
S     29.7760000000   29.5520000000   24.2740000000
C     30.3110000000   30.1150000000   25.9060000000
H     29.7430000000   31.0040000000   26.1940000000
H     30.2040000000   29.3220000000   26.6500000000
H     31.3820000000   30.3290000000   25.8900000000
O     28.6300000000   28.6570000000   24.6310000000
C     27.5560000000   37.1120000000   22.0010000000
H     28.5970000000   37.2520000000   21.6990000000
H     27.0840000000   37.9800000000   21.5330000000
H     27.4590000000   37.1210000000   23.0900000000
S     26.9120000000   35.5930000000   21.2650000000
C     27.4340000000   35.9180000000   19.5650000000
H     26.9300000000   36.8360000000   19.2520000000
H     28.5200000000   36.0410000000   19.5440000000
H     27.1030000000   35.2430000000   18.7720000000
O     25.4340000000   35.8100000000   21.3560000000
C     26.7240000000   37.7000000000   31.8760000000
H     25.9340000000   37.0130000000   32.1920000000
H     27.5720000000   37.4970000000   32.5350000000
H     26.3340000000   38.7100000000   32.0270000000
S     27.3180000000   37.5880000000   30.1730000000
C     28.5020000000   38.9530000000   30.1360000000
H     27.9550000000   39.8300000000   30.4910000000
H     29.3820000000   38.9830000000   30.7830000000
H     28.7360000000   39.0500000000   29.0730000000
O     26.4770000000   38.2000000000   29.0960000000
C     26.2180000000   26.0110000000   30.1400000000
H     26.9440000000   25.2060000000   30.2790000000
H     26.6600000000   26.8670000000   30.6560000000
H     25.1820000000   25.7260000000   30.3400000000
S     26.1540000000   26.3280000000   28.3620000000
C     27.6970000000   27.2400000000   28.1330000000
H     27.6090000000   27.7350000000   27.1620000000
H     27.6910000000   27.9990000000   28.9200000000
H     28.5050000000   26.5250000000   28.3070000000
O     25.1150000000   27.3730000000   28.0950000000
C     22.6150000000   24.1350000000   24.6050000000
H     21.9870000000   23.3170000000   24.9650000000
H     21.9550000000   24.9740000000   24.3700000000
H     23.2150000000   23.8370000000   23.7420000000
S     23.8540000000   24.5860000000   25.8410000000
C     24.9090000000   25.6420000000   24.8230000000
H     25.2730000000   24.9370000000   24.0710000000
H     24.2880000000   26.4410000000   24.4100000000
H     25.7600000000   26.0040000000   25.4060000000
O     24.6740000000   23.3380000000   25.9470000000
C     18.2620000000   38.0200000000   27.3080000000
H     17.6520000000   38.2030000000   28.1960000000
H     18.3720000000   38.9280000000   26.7090000000
H     17.8070000000   37.2870000000   26.6370000000
S     19.8410000000   37.4680000000   27.9920000000
C     20.4930000000   37.1260000000   26.3410000000
H     20.4970000000   38.0510000000   25.7580000000
H     21.5140000000   36.7650000000   26.4910000000
H     19.8700000000   36.3600000000   25.8720000000
O     19.6040000000   36.0910000000   28.5270000000
C     26.4560000000   27.5070000000   20.5160000000
H     25.9770000000   27.8050000000   19.5800000000
H     25.7500000000   26.8720000000   21.0570000000
H     26.8000000000   28.2940000000   21.1920000000
S     27.9380000000   26.5720000000   20.0710000000
C     28.5000000000   26.3660000000   21.7760000000
H     29.5900000000   26.3440000000   21.7130000000
H     28.0630000000   27.1730000000   22.3710000000
H     28.2160000000   25.3710000000   22.1260000000
O     28.7500000000   27.6830000000   19.4820000000
C     21.0440000000   35.5380000000   20.6230000000
H     20.2010000000   36.2150000000   20.4600000000
H     21.9580000000   36.0540000000   20.3180000000
H     20.8930000000   34.6350000000   20.0250000000
S     21.1730000000   34.9330000000   22.3210000000
C     22.3070000000   36.2090000000   22.9150000000
H     22.9810000000   36.4990000000   22.1050000000
H     21.7090000000   37.0430000000   23.2910000000
H     22.9070000000   35.7840000000   23.7240000000
O     21.9720000000   33.6670000000   22.3030000000
C     22.7730000000   29.2630000000   36.5740000000
H     22.5000000000   29.1100000000   37.6210000000
H     23.2430000000   30.2140000000   36.3120000000
H     21.9120000000   29.1210000000   35.9160000000
S     23.7550000000   27.8270000000   36.0860000000
C     25.1340000000   28.2550000000   37.1720000000
H     25.5010000000   29.2820000000   37.0980000000
H     24.8440000000   28.0850000000   38.2120000000
H     25.9560000000   27.5980000000   36.8770000000
O     24.0610000000   28.3570000000   34.7200000000
C     20.1820000000   33.0250000000   26.6790000000
H     20.7830000000   32.1570000000   26.9610000000
H     20.7230000000   33.9550000000   26.8750000000
H     19.3660000000   32.9110000000   27.3970000000
S     19.6120000000   32.6890000000   24.9980000000
C     18.0160000000   33.4800000000   25.3050000000
H     17.5360000000   32.8940000000   26.0920000000
H     18.0640000000   34.5370000000   25.5800000000
H     17.4480000000   33.2560000000   24.3980000000
O     19.2840000000   31.2300000000   25.0590000000
C     18.9830000000   32.8310000000   30.2490000000
H     18.1650000000   32.2980000000   30.7390000000
H     18.5730000000   33.5010000000   29.4890000000
H     19.8390000000   32.2580000000   29.8810000000
S     19.6280000000   34.0870000000   31.3760000000
C     20.4020000000   32.8840000000   32.4800000000
H     20.0840000000   33.0880000000   33.5060000000
H     19.9760000000   31.9010000000   32.2680000000
H     21.4880000000   32.9320000000   32.3690000000
O     18.5320000000   34.6520000000   32.2240000000
C     21.5360000000   27.9280000000   28.9120000000
H     22.2520000000   27.2080000000   28.5070000000
H     20.7010000000   27.5450000000   29.5050000000
H     21.0270000000   28.5070000000   28.1380000000
S     22.4470000000   29.1380000000   29.8980000000
C     23.2630000000   27.9750000000   31.0150000000
H     23.1430000000   28.2630000000   32.0630000000
H     22.8660000000   26.9770000000   30.8110000000
H     24.3020000000   27.9280000000   30.6800000000
O     21.3740000000   29.7450000000   30.7480000000
C     24.1940000000   34.4680000000   17.7470000000
H     24.3070000000   34.4640000000   16.6600000000
H     23.1820000000   34.7680000000   18.0320000000
H     24.9980000000   35.0550000000   18.1970000000
S     24.2710000000   32.7220000000   18.2050000000
C     24.3020000000   32.8210000000   20.0090000000
H     23.3770000000   33.1940000000   20.4560000000
H     24.4560000000   31.7790000000   20.2990000000
H     25.1980000000   33.3590000000   20.3300000000
O     25.6460000000   32.2420000000   17.8570000000
C     23.6100000000   39.1110000000   26.4600000000
H     23.3420000000   39.1470000000   27.5190000000
H     24.0360000000   40.0480000000   26.0910000000
H     22.7500000000   38.8120000000   25.8560000000
S     24.7870000000   37.7870000000   26.1030000000
C     24.9030000000   38.4310000000   24.4190000000
H     25.2530000000   39.4640000000   24.4820000000
H     25.5030000000   37.8400000000   23.7220000000
H     23.8550000000   38.4590000000   24.1070000000
O     23.9810000000   36.5330000000   25.9710000000
C     17.1150000000   29.0000000000   22.8750000000
H     17.0530000000   29.7450000000   23.6730000000
H     17.7560000000   29.3340000000   22.0560000000
H     16.0790000000   28.7420000000   22.6390000000
S     17.8350000000   27.5020000000   23.5830000000
C     19.4500000000   28.1630000000   24.0520000000
H     20.0900000000   27.3620000000   24.4280000000
H     19.9170000000   28.6000000000   23.1650000000
H     19.3820000000   28.9220000000   24.8360000000
O     18.2200000000   26.7230000000   22.3640000000
C     23.5300000000   36.2950000000   29.3200000000
H     23.6040000000   35.9640000000   28.2810000000
H     22.5170000000   36.6800000000   29.4570000000
H     24.2750000000   37.0630000000   29.5430000000
S     23.9960000000   34.9290000000   30.4080000000
C     22.7870000000   33.7750000000   29.7210000000
H     22.9850000000   33.5750000000   28.6650000000
H     22.9010000000   32.8070000000   30.2150000000
H     21.8080000000   34.2470000000   29.8400000000
O     23.5150000000   35.2100000000   31.7980000000
C     20.6690000000   30.9170000000   21.5580000000
H     19.8790000000   30.1650000000   21.6320000000
H     21.6540000000   30.4530000000   21.6500000000
H     20.4610000000   31.6210000000   22.3690000000
S     20.8790000000   31.5380000000   19.8740000000
C     19.1650000000   32.0600000000   19.6450000000
H     18.5490000000   31.5430000000   20.3850000000
H     19.1130000000   33.1040000000   19.9610000000
H     18.7600000000   31.9890000000   18.6320000000
O     21.0260000000   30.3850000000   18.9300000000
C     29.6840000000   24.7730000000   24.9860000000
H     29.6100000000   24.3160000000   25.9760000000
H     29.8420000000   25.8550000000   24.9630000000
H     28.7350000000   24.7070000000   24.4480000000
S     31.1150000000   23.9890000000   24.2080000000
C     32.4600000000   24.9190000000   24.9780000000
H     32.2650000000   25.9920000000   25.0520000000
H     32.6070000000   24.5640000000   26.0010000000
H     33.3540000000   24.6880000000   24.3930000000
O     31.2790000000   24.5740000000   22.8400000000
C     27.7430000000   27.7560000000   34.0810000000
H     27.7060000000   28.8440000000   34.1750000000
H     26.9650000000   27.3650000000   33.4210000000
H     27.7150000000   27.2630000000   35.0550000000
S     29.3200000000   27.2250000000   33.3750000000
C     29.5560000000   28.5240000000   32.1410000000
H     30.2110000000   29.2940000000   32.5580000000
H     29.9670000000   28.2190000000   31.1760000000
H     28.5640000000   28.8940000000   31.8710000000
O     28.8960000000   25.9670000000   32.6840000000
C     25.7910000000   30.9920000000   34.3730000000
H     26.1210000000   30.9900000000   33.3300000000
H     25.8890000000   30.0220000000   34.8670000000
H     24.8020000000   31.4550000000   34.4240000000
S     27.1630000000   31.9680000000   35.0300000000
C     26.6530000000   33.5410000000   34.3010000000
H     25.8040000000   33.4990000000   33.6140000000
H     26.4990000000   34.2610000000   35.1080000000
H     27.4620000000   33.8640000000   33.6410000000
O     28.2990000000   31.6100000000   34.1230000000
