252

C     29.1280000000   28.7500000000   24.3580000000
C     27.7280000000   28.6980000000   24.9920000000
C     27.1400000000   27.2780000000   24.9650000000
C     28.1070000000   26.2320000000   25.5440000000
C     29.4320000000   26.2290000000   24.7640000000
C     30.0670000000   27.6270000000   24.8290000000
H     26.1510000000   27.0570000000   25.3860000000
H     27.8370000000   28.9810000000   26.0460000000
H     29.0280000000   28.6660000000   23.2690000000
H     29.6320000000   29.6900000000   24.6120000000
H     28.4430000000   26.4350000000   26.5680000000
H     27.7730000000   25.1870000000   25.5550000000
H     30.1230000000   25.5060000000   25.2140000000
H     29.2550000000   25.8120000000   23.7650000000
H     30.4280000000   27.8000000000   25.8500000000
H     31.0090000000   27.6300000000   24.2670000000
H     26.9880000000   26.9650000000   23.9250000000
N     26.7950000000   29.6270000000   24.3570000000
H     26.0270000000   29.2420000000   23.8190000000
C     26.9050000000   30.9990000000   24.4260000000
H     26.1390000000   31.4290000000   23.7550000000
O     27.7480000000   31.6210000000   25.0480000000
C     22.0130000000   33.4350000000   24.2050000000
H     20.9610000000   33.3660000000   23.9180000000
H     22.2450000000   32.6540000000   24.9340000000
H     22.2290000000   34.4640000000   24.5030000000
S     22.8820000000   32.8220000000   22.7440000000
C     22.3030000000   31.1110000000   22.6960000000
H     22.9750000000   30.5380000000   22.0530000000
H     22.3280000000   30.6700000000   23.6960000000
H     21.2700000000   31.0840000000   22.3410000000
O     24.3160000000   32.6610000000   23.1410000000
C     35.7470000000   33.0700000000   26.3870000000
H     34.9520000000   33.5060000000   25.7770000000
H     36.1430000000   33.8510000000   27.0410000000
H     36.5240000000   32.6260000000   25.7600000000
S     34.9320000000   31.8060000000   27.3900000000
C     34.1410000000   30.6660000000   26.2320000000
H     33.3500000000   30.1270000000   26.7590000000
H     33.6080000000   31.2380000000   25.4690000000
H     34.7190000000   29.8820000000   25.7370000000
O     33.7740000000   32.6000000000   27.9090000000
C     31.8130000000   34.4290000000   25.3750000000
H     32.6700000000   34.0040000000   24.8470000000
H     31.7920000000   35.5160000000   25.4890000000
H     31.8570000000   33.9540000000   26.3590000000
S     30.2830000000   33.8060000000   24.6440000000
C     30.8220000000   32.0860000000   24.5080000000
H     30.0330000000   31.5520000000   23.9730000000
H     31.7310000000   32.0010000000   23.9060000000
H     30.9980000000   31.7430000000   25.5310000000
O     30.2170000000   34.2290000000   23.2090000000
C     32.0940000000   31.9060000000   20.7620000000
H     32.3360000000   32.1080000000   19.7150000000
H     31.5100000000   32.7520000000   21.1330000000
H     32.9970000000   31.5610000000   21.2700000000
S     31.1020000000   30.3990000000   20.6700000000
C     29.3550000000   30.8610000000   20.6640000000
H     28.8520000000   29.8940000000   20.7530000000
H     29.1890000000   31.4790000000   21.5500000000
H     29.1410000000   31.4880000000   19.7950000000
O     31.3210000000   29.8400000000   22.0420000000
C     29.7030000000   32.5290000000   28.7530000000
H     29.2820000000   32.5740000000   29.7610000000
H     30.7950000000   32.5700000000   28.7800000000
H     29.1670000000   33.3360000000   28.2470000000
S     29.3510000000   30.9170000000   28.0160000000
C     27.6300000000   30.8620000000   28.5630000000
H     26.9090000000   31.4210000000   27.9610000000
H     27.4250000000   29.7920000000   28.4790000000
H     27.5070000000   31.0830000000   29.6260000000
O     30.0320000000   30.1100000000   29.0760000000
C     22.9560000000   25.4090000000   28.6590000000
H     22.5350000000   24.5380000000   28.1490000000
H     22.3760000000   25.4240000000   29.5850000000
H     22.7610000000   26.3110000000   28.0740000000
S     24.7430000000   25.2780000000   28.8910000000
C     24.6810000000   23.6710000000   29.7150000000
H     25.6900000000   23.3570000000   29.9930000000
H     23.9890000000   23.5920000000   30.5580000000
H     24.3630000000   22.9570000000   28.9520000000
O     25.1060000000   26.2830000000   29.9400000000
C     29.1290000000   22.7040000000   21.2800000000
H     28.5690000000   22.9510000000   22.1860000000
H     28.5380000000   22.6960000000   20.3610000000
H     29.6250000000   21.7370000000   21.3940000000
S     30.4780000000   23.9020000000   21.1900000000
C     31.2200000000   23.0250000000   19.7950000000
H     32.1200000000   23.5890000000   19.5380000000
H     31.4580000000   22.0290000000   20.1760000000
H     30.4190000000   23.0950000000   19.0550000000
O     31.3260000000   23.6930000000   22.4060000000
C     29.5020000000   22.3410000000   26.2560000000
H     30.4820000000   21.9090000000   26.0350000000
H     28.8360000000   22.3280000000   25.3890000000
H     29.6240000000   23.3470000000   26.6660000000
S     28.6720000000   21.3270000000   27.5000000000
C     28.1860000000   19.9820000000   26.3960000000
H     27.5670000000   19.2330000000   26.8970000000
H     27.5810000000   20.3310000000   25.5550000000
H     29.1100000000   19.5130000000   26.0500000000
O     27.3410000000   21.9900000000   27.6800000000
C     21.9720000000   25.3990000000   25.4410000000
H     22.9820000000   25.1030000000   25.7350000000
H     22.0240000000   26.2860000000   24.8050000000
H     21.3370000000   25.5330000000   26.3210000000
S     21.2150000000   23.9210000000   24.7270000000
C     19.4830000000   24.3810000000   24.9630000000
H     18.8240000000   24.0300000000   24.1640000000
H     19.2250000000   24.1820000000   26.0060000000
H     19.5550000000   25.4660000000   24.8550000000
O     21.2830000000   22.9470000000   25.8610000000
C     25.4920000000   26.4080000000   21.4700000000
H     26.0810000000   25.9410000000   22.2630000000
H     25.1450000000   25.6810000000   20.7320000000
H     26.1450000000   27.1900000000   21.0750000000
S     24.0550000000   27.1460000000   22.2810000000
C     23.1570000000   27.7670000000   20.8420000000
H     23.1130000000   27.1800000000   19.9210000000
H     22.1200000000   27.9730000000   21.1200000000
H     23.5300000000   28.7490000000   20.5420000000
O     24.6660000000   28.3990000000   22.8260000000
C     26.8020000000   34.8420000000   24.6490000000
H     26.7290000000   35.4250000000   25.5710000000
H     26.5780000000   33.7750000000   24.7340000000
H     27.8350000000   35.0080000000   24.3320000000
S     25.7800000000   35.5500000000   23.3380000000
C     26.7770000000   34.8460000000   22.0050000000
H     26.7120000000   33.7550000000   21.9940000000
H     26.3820000000   35.2350000000   21.0630000000
H     27.8120000000   35.1460000000   22.1880000000
O     26.2950000000   36.9450000000   23.1630000000
C     36.0090000000   22.1390000000   20.7450000000
H     35.9970000000   21.6550000000   19.7650000000
H     36.3460000000   23.1770000000   20.6800000000
H     36.5970000000   21.5220000000   21.4290000000
S     34.3160000000   22.2160000000   21.3710000000
C     34.6450000000   22.6710000000   23.0880000000
H     35.1120000000   23.6600000000   23.0880000000
H     33.6620000000   22.7690000000   23.5570000000
H     35.2560000000   21.9070000000   23.5740000000
O     33.8410000000   20.8000000000   21.4680000000
C     34.9680000000   28.1820000000   23.3150000000
H     34.5060000000   27.8700000000   24.2550000000
H     35.8750000000   27.6110000000   23.1030000000
H     35.2570000000   29.2310000000   23.4200000000
S     33.9280000000   28.1050000000   21.8400000000
C     33.3510000000   26.3980000000   21.9730000000
H     32.6800000000   26.3590000000   21.1110000000
H     34.2220000000   25.7830000000   21.7340000000
H     32.8740000000   26.1430000000   22.9230000000
O     34.8190000000   27.9980000000   20.6420000000
C     28.4520000000   31.3940000000   32.4650000000
H     27.7330000000   31.7890000000   33.1870000000
H     29.4170000000   31.4370000000   32.9780000000
H     28.4500000000   31.9020000000   31.4980000000
S     27.9190000000   29.6930000000   32.1710000000
C     26.2170000000   30.0160000000   31.6580000000
H     25.6940000000   30.1030000000   32.6130000000
H     26.1660000000   31.0100000000   31.2050000000
H     25.7830000000   29.1930000000   31.0840000000
O     27.6940000000   29.2380000000   33.5790000000
C     26.6620000000   26.5550000000   18.2750000000
H     26.1960000000   27.4360000000   18.7250000000
H     27.0470000000   26.7290000000   17.2670000000
H     25.8390000000   25.8450000000   18.3920000000
S     28.0110000000   26.0470000000   19.3640000000
C     29.0280000000   27.5360000000   19.2380000000
H     28.2660000000   28.2620000000   19.5320000000
H     29.9040000000   27.4180000000   19.8810000000
H     29.2900000000   27.6980000000   18.1890000000
O     28.8580000000   25.1600000000   18.5060000000
C     33.6050000000   18.3150000000   24.6430000000
H     34.0140000000   17.6030000000   25.3650000000
H     33.7980000000   18.0170000000   23.6100000000
H     34.0680000000   19.2920000000   24.8050000000
S     31.8450000000   18.5790000000   24.9560000000
C     31.6240000000   19.9000000000   23.7420000000
H     31.7400000000   19.6020000000   22.6970000000
H     30.6220000000   20.2160000000   24.0420000000
H     32.3520000000   20.6830000000   23.9700000000
O     31.8160000000   19.1750000000   26.3290000000
C     33.3790000000   26.4190000000   26.7770000000
H     32.3730000000   26.8400000000   26.7060000000
H     33.4610000000   25.9150000000   27.7440000000
H     34.2350000000   27.0960000000   26.7290000000
S     33.5380000000   25.0630000000   25.5930000000
C     33.2430000000   23.6730000000   26.7100000000
H     33.9650000000   23.9550000000   27.4820000000
H     32.2850000000   23.8750000000   27.1960000000
H     33.3900000000   22.7060000000   26.2230000000
O     35.0010000000   24.9370000000   25.3000000000
C     23.2400000000   30.7810000000   26.3000000000
H     24.0660000000   31.4080000000   25.9550000000
H     23.0420000000   29.9390000000   25.6310000000
H     22.3490000000   31.3880000000   26.4820000000
S     23.5220000000   30.0400000000   27.9240000000
C     24.6160000000   28.6820000000   27.4510000000
H     24.5120000000   27.8890000000   28.1960000000
H     24.3180000000   28.3500000000   26.4530000000
H     25.6730000000   28.9610000000   27.4710000000
O     22.1690000000   29.4460000000   28.1610000000
C     25.5720000000   35.6610000000   29.8160000000
H     26.5350000000   36.1660000000   29.7100000000
H     24.7240000000   36.1570000000   29.3370000000
H     25.4630000000   35.6380000000   30.9030000000
S     25.8930000000   33.9850000000   29.2220000000
C     25.2320000000   34.0700000000   27.5420000000
H     25.5470000000   35.0290000000   27.1240000000
H     25.7520000000   33.3200000000   26.9400000000
H     24.1430000000   33.9840000000   27.5800000000
O     24.9760000000   32.9270000000   29.7530000000
C     25.2180000000   31.0590000000   20.0780000000
H     26.2630000000   30.7940000000   19.9010000000
H     25.2250000000   32.0980000000   20.4180000000
H     24.7230000000   30.4250000000   20.8180000000
S     24.3730000000   31.1110000000   18.4820000000
C     22.7850000000   31.6590000000   19.1490000000
H     22.4670000000   31.0040000000   19.9640000000
H     22.8790000000   32.6550000000   19.5890000000
H     22.0050000000   31.6120000000   18.3860000000
O     24.0910000000   29.6500000000   18.3210000000
C     24.4150000000   21.1540000000   24.2380000000
H     24.8000000000   20.4050000000   24.9340000000
H     23.3710000000   21.3280000000   24.5100000000
H     24.4960000000   20.7050000000   23.2450000000
S     25.3540000000   22.6970000000   24.3080000000
C     25.0010000000   23.0860000000   26.0370000000
H     23.9540000000   23.3950000000   25.9650000000
H     25.2400000000   22.2630000000   26.7140000000
H     25.5300000000   24.0290000000   26.1980000000
O     24.4130000000   23.6750000000   23.6750000000
C     28.8330000000   26.9730000000   29.1530000000
H     27.9620000000   26.3310000000   29.0000000000
H     28.6270000000   27.8100000000   29.8260000000
H     29.2110000000   27.3390000000   28.1950000000
S     30.2430000000   25.9650000000   29.6620000000
C     31.2800000000   27.3590000000   30.1600000000
H     32.3370000000   27.2020000000   30.3930000000
H     31.1240000000   28.0570000000   29.3340000000
H     30.7710000000   27.9360000000   30.9360000000
O     30.7590000000   25.5160000000   28.3310000000
C     22.0470000000   23.7560000000   20.8590000000
H     21.5680000000   24.5240000000   20.2460000000
H     21.3630000000   23.0130000000   21.2770000000
H     22.5870000000   24.0780000000   21.7520000000
S     23.1510000000   23.1210000000   19.5770000000
C     24.1960000000   22.2350000000   20.7550000000
H     23.6070000000   21.7560000000   21.5420000000
H     24.8310000000   21.4920000000   20.2640000000
H     24.8320000000   23.0400000000   21.1320000000
O     23.9080000000   24.3000000000   19.0490000000
