292

C     28.7930000000   22.8270000000   25.1290000000
C     28.6020000000   23.8640000000   26.2470000000
C     28.6370000000   25.3100000000   25.7260000000
C     27.6740000000   25.5100000000   24.5440000000
C     27.8780000000   24.5360000000   23.3720000000
C     27.8210000000   23.1230000000   23.9740000000
H     28.4850000000   25.9960000000   26.5680000000
H     27.6240000000   23.6990000000   26.7170000000
H     29.8560000000   22.8770000000   24.8640000000
H     28.5700000000   21.8470000000   25.5690000000
H     26.6440000000   25.4100000000   24.9060000000
H     27.8450000000   26.5500000000   24.2400000000
H     27.1750000000   24.7030000000   22.5470000000
H     28.8470000000   24.8230000000   22.9460000000
H     26.8160000000   22.9160000000   24.3620000000
H     28.0860000000   22.4970000000   23.1130000000
H     29.6400000000   25.5460000000   25.3490000000
N     29.6380000000   23.7230000000   27.2680000000
H     30.6110000000   23.7050000000   26.9880000000
C     29.4360000000   24.0040000000   28.6030000000
H     30.3610000000   23.8430000000   29.1860000000
O     28.3230000000   24.2290000000   29.0440000000
C     27.5120000000   30.6430000000   22.6440000000
H     28.3470000000   30.5960000000   21.9390000000
H     27.3770000000   31.6580000000   23.0260000000
H     27.5740000000   29.8130000000   23.3530000000
S     26.1850000000   30.1350000000   21.5280000000
C     25.0350000000   29.8290000000   22.8870000000
H     25.4460000000   29.0470000000   23.5310000000
H     24.8510000000   30.7170000000   23.4980000000
H     24.1080000000   29.5160000000   22.4010000000
O     26.6440000000   28.7610000000   21.1490000000
C     25.8370000000   26.8010000000   29.7450000000
H     26.1800000000   25.8460000000   29.3380000000
H     25.1650000000   27.2710000000   29.0230000000
H     26.7250000000   27.4300000000   29.8490000000
S     25.1020000000   26.4680000000   31.3620000000
C     24.3390000000   24.8810000000   30.9560000000
H     24.7240000000   24.3230000000   30.0990000000
H     24.3760000000   24.2800000000   31.8690000000
H     23.3160000000   25.2110000000   30.7580000000
O     23.9670000000   27.4400000000   31.4510000000
C     30.3010000000   27.2090000000   29.8260000000
H     31.0670000000   26.5550000000   30.2510000000
H     29.5050000000   26.4840000000   29.6390000000
H     30.5490000000   27.5660000000   28.8230000000
S     29.8130000000   28.5110000000   30.9800000000
C     29.0660000000   27.4330000000   32.2230000000
H     28.8080000000   26.6240000000   31.5350000000
H     29.7300000000   27.0590000000   33.0070000000
H     28.1040000000   27.8280000000   32.5600000000
O     28.5570000000   28.9820000000   30.3160000000
C     32.0930000000   24.1230000000   34.0330000000
H     31.1100000000   24.2680000000   34.4860000000
H     32.2740000000   23.0470000000   34.1030000000
H     32.8470000000   24.8000000000   34.4430000000
S     32.0030000000   24.5510000000   32.2790000000
C     33.5170000000   23.6510000000   31.8770000000
H     33.1850000000   22.6160000000   31.7610000000
H     33.9680000000   23.9670000000   30.9330000000
H     34.2820000000   23.6520000000   32.6580000000
O     32.4060000000   25.9920000000   32.3440000000
C     31.4160000000   19.3770000000   23.8260000000
H     31.1690000000   19.2780000000   24.8870000000
H     32.2560000000   18.7250000000   23.5750000000
H     31.6960000000   20.3980000000   23.5540000000
S     30.0840000000   18.8960000000   22.7030000000
C     30.9760000000   19.3990000000   21.2140000000
H     31.8380000000   18.7440000000   21.0680000000
H     30.2550000000   19.3280000000   20.3950000000
H     31.3490000000   20.4250000000   21.2570000000
O     28.9250000000   19.8220000000   22.9000000000
C     23.0810000000   20.6090000000   32.7950000000
H     23.6830000000   19.7050000000   32.6740000000
H     23.6380000000   21.2980000000   33.4350000000
H     22.1780000000   20.3490000000   33.3530000000
S     22.8130000000   21.4590000000   31.2230000000
C     21.5840000000   22.6440000000   31.8140000000
H     22.1100000000   23.3250000000   32.4870000000
H     21.2150000000   23.0910000000   30.8870000000
H     20.8270000000   22.0000000000   32.2690000000
O     21.9520000000   20.5230000000   30.4350000000
C     33.8370000000   17.0800000000   28.8720000000
H     34.8070000000   16.5970000000   29.0120000000
H     33.6110000000   17.4960000000   29.8570000000
H     32.9940000000   16.4240000000   28.6420000000
S     34.0100000000   18.3050000000   27.5550000000
C     33.4480000000   17.3380000000   26.1350000000
H     32.3840000000   17.2180000000   25.9170000000
H     33.7860000000   17.7960000000   25.2020000000
H     33.8840000000   16.3360000000   26.1650000000
O     35.4650000000   18.3600000000   27.2070000000
C     30.7440000000   19.1610000000   30.9780000000
H     31.7910000000   18.9160000000   30.7790000000
H     30.4980000000   19.3880000000   32.0190000000
H     30.0790000000   18.4060000000   30.5520000000
S     30.1680000000   20.6310000000   30.1010000000
C     31.1530000000   20.1980000000   28.6500000000
H     30.8350000000   19.2040000000   28.3240000000
H     30.9400000000   20.9780000000   27.9150000000
H     32.2230000000   20.1800000000   28.8710000000
O     31.0700000000   21.6730000000   30.6850000000
C     29.1020000000   22.2200000000   19.8980000000
H     28.0390000000   22.0760000000   19.6920000000
H     29.4450000000   21.4730000000   20.6180000000
H     29.3150000000   23.1900000000   20.3540000000
S     30.0160000000   22.0540000000   18.3470000000
C     29.3830000000   20.4330000000   17.8580000000
H     29.7550000000   19.5900000000   18.4460000000
H     28.2970000000   20.5290000000   17.9390000000
H     29.5510000000   20.3560000000   16.7810000000
O     31.4110000000   21.8240000000   18.8370000000
C     26.2670000000   23.1720000000   34.3320000000
H     25.7700000000   22.6290000000   35.1400000000
H     26.9980000000   23.8820000000   34.7280000000
H     25.5350000000   23.7410000000   33.7530000000
S     27.2960000000   22.1480000000   33.2560000000
C     28.0790000000   23.4260000000   32.2460000000
H     27.2230000000   23.9170000000   31.7770000000
H     28.6350000000   24.0830000000   32.9190000000
H     28.6940000000   22.9680000000   31.4670000000
O     26.5130000000   21.5490000000   32.1300000000
C     21.3470000000   19.1330000000   26.0750000000
H     21.0200000000   18.0900000000   26.0770000000
H     22.3170000000   19.3210000000   25.6070000000
H     21.5580000000   19.5570000000   27.0600000000
S     20.2070000000   20.2170000000   25.1870000000
C     20.8300000000   19.7290000000   23.5630000000
H     20.5080000000   18.7180000000   23.3000000000
H     20.5240000000   20.4710000000   22.8210000000
H     21.9120000000   19.8840000000   23.5650000000
O     20.9670000000   21.4890000000   25.3970000000
C     34.3000000000   28.0460000000   25.8070000000
H     34.0010000000   27.8890000000   26.8470000000
H     33.7250000000   28.8930000000   25.4240000000
H     33.9840000000   27.1750000000   25.2280000000
S     36.0880000000   28.2930000000   25.7220000000
C     36.2130000000   27.8390000000   23.9770000000
H     35.9960000000   28.7120000000   23.3560000000
H     37.2530000000   27.5550000000   23.7950000000
H     35.4760000000   27.0600000000   23.7670000000
O     36.6710000000   27.0540000000   26.3260000000
C     28.6660000000   28.8660000000   26.6790000000
H     28.5970000000   29.9520000000   26.5730000000
H     27.8500000000   28.3330000000   26.1840000000
H     28.7290000000   28.6290000000   27.7440000000
S     30.3640000000   28.5190000000   26.1700000000
C     31.2490000000   29.9130000000   26.9040000000
H     31.0480000000   30.7130000000   26.1860000000
H     30.7370000000   30.2910000000   27.7930000000
H     32.3210000000   29.7390000000   27.0240000000
O     30.3570000000   28.8540000000   24.7110000000
C     26.2080000000   18.4970000000   33.1690000000
H     26.8910000000   18.0680000000   33.9060000000
H     25.9780000000   19.5580000000   33.2950000000
H     25.2840000000   17.9190000000   33.0830000000
S     27.1230000000   18.4600000000   31.6120000000
C     25.7300000000   18.4250000000   30.4610000000
H     25.1750000000   17.4840000000   30.4700000000
H     24.9960000000   19.1990000000   30.7010000000
H     26.1810000000   18.5700000000   29.4760000000
O     27.6120000000   17.0580000000   31.4230000000
C     31.7980000000   25.3960000000   19.0750000000
H     32.3920000000   25.6980000000   19.9420000000
H     31.4100000000   24.3790000000   18.9790000000
H     32.3410000000   25.6110000000   18.1500000000
S     30.4090000000   26.5510000000   19.1170000000
C     29.9240000000   26.2670000000   20.8340000000
H     28.9960000000   26.8180000000   21.0040000000
H     29.7560000000   25.1950000000   20.9640000000
H     30.7540000000   26.5440000000   21.4900000000
O     29.3380000000   25.7690000000   18.4230000000
C     36.3800000000   21.5800000000   24.8090000000
H     36.3100000000   21.9360000000   25.8400000000
H     37.2410000000   20.9080000000   24.7850000000
H     36.3830000000   22.3890000000   24.0740000000
S     34.8630000000   20.6400000000   24.5300000000
C     35.1570000000   20.2170000000   22.7980000000
H     35.9540000000   19.4720000000   22.8580000000
H     34.2470000000   19.8080000000   22.3530000000
H     35.5150000000   21.1190000000   22.2940000000
O     33.8160000000   21.7100000000   24.5240000000
C     25.7360000000   31.6400000000   26.9290000000
H     26.3470000000   32.3560000000   27.4830000000
H     26.4230000000   30.8510000000   26.6140000000
H     25.1060000000   32.0660000000   26.1440000000
S     24.4020000000   31.1190000000   28.0320000000
C     25.6280000000   30.2380000000   29.0250000000
H     25.2190000000   29.4170000000   29.6180000000
H     26.3250000000   29.7770000000   28.3200000000
H     26.1850000000   30.8710000000   29.7210000000
O     23.7380000000   30.1220000000   27.1340000000
C     22.2440000000   22.9150000000   21.8920000000
H     22.7240000000   22.4510000000   21.0270000000
H     22.8290000000   23.7890000000   22.1870000000
H     22.1300000000   22.2150000000   22.7250000000
S     20.5750000000   23.4560000000   21.4600000000
C     19.9600000000   24.1230000000   23.0220000000
H     20.3410000000   23.4670000000   23.8090000000
H     20.4230000000   25.1030000000   23.1630000000
H     18.8720000000   24.2090000000   23.0810000000
O     19.8110000000   22.1940000000   21.2040000000
C     23.9990000000   26.8870000000   26.1780000000
H     24.7210000000   27.3760000000   26.8370000000
H     24.3380000000   27.2010000000   25.1870000000
H     22.9900000000   27.2690000000   26.3530000000
S     23.8710000000   25.0850000000   26.1610000000
C     22.5680000000   24.8920000000   24.9240000000
H     22.2860000000   23.8520000000   24.7440000000
H     21.6990000000   25.4630000000   25.2610000000
H     22.8920000000   25.3460000000   23.9840000000
O     23.2300000000   24.7740000000   27.4780000000
C     33.0990000000   29.3680000000   22.2820000000
H     33.5190000000   28.7150000000   21.5120000000
H     33.6870000000   29.4720000000   23.1980000000
H     32.1230000000   29.0140000000   22.6210000000
S     32.8300000000   31.0460000000   21.6680000000
C     31.6770000000   31.5570000000   22.9620000000
H     30.8810000000   30.8080000000   22.9500000000
H     32.2270000000   31.6530000000   23.9020000000
H     31.3860000000   32.5850000000   22.7320000000
O     31.8910000000   30.6840000000   20.5590000000
C     25.3610000000   19.7840000000   23.7700000000
H     25.2920000000   18.8550000000   24.3410000000
H     26.2160000000   20.4390000000   23.9530000000
H     24.4660000000   20.3840000000   23.9520000000
S     25.4240000000   19.3090000000   22.0280000000
C     25.8190000000   20.9280000000   21.3320000000
H     25.6170000000   20.8320000000   20.2620000000
H     25.1140000000   21.6480000000   21.7550000000
H     26.8640000000   21.1640000000   21.5480000000
O     23.9710000000   19.2290000000   21.6760000000
C     26.4640000000   21.5170000000   28.8620000000
H     27.4650000000   21.0840000000   28.9280000000
H     26.4040000000   22.5990000000   29.0060000000
H     25.8340000000   21.0180000000   29.6030000000
S     25.6500000000   21.0550000000   27.3160000000
C     23.9500000000   21.3360000000   27.8600000000
H     23.9120000000   22.4020000000   28.0950000000
H     23.2390000000   21.1430000000   27.0520000000
H     23.8580000000   20.7330000000   28.7670000000
O     25.9900000000   19.5980000000   27.2800000000
C     24.4520000000   26.1010000000   22.0820000000
H     24.9640000000   27.0510000000   22.2530000000
H     23.3770000000   26.2430000000   22.2150000000
H     24.8310000000   25.3110000000   22.7360000000
S     24.8120000000   25.6700000000   20.3650000000
C     23.9020000000   27.0910000000   19.7190000000
H     23.0540000000   27.3840000000   20.3450000000
H     24.5950000000   27.9250000000   19.5840000000
H     23.4610000000   26.7370000000   18.7840000000
O     23.8580000000   24.5370000000   20.1440000000
C     32.6980000000   23.4840000000   22.0810000000
H     31.7750000000   23.8780000000   21.6470000000
H     33.3730000000   23.2680000000   21.2490000000
H     32.5230000000   22.5900000000   22.6860000000
S     33.4090000000   24.8810000000   22.9790000000
C     31.9410000000   25.0810000000   24.0120000000
H     32.2130000000   25.7050000000   24.8680000000
H     31.1600000000   25.4930000000   23.3690000000
H     31.6290000000   24.0660000000   24.2710000000
O     33.1310000000   26.0610000000   22.1000000000
C     28.2750000000   18.1510000000   26.1100000000
H     28.7340000000   18.4690000000   25.1710000000
H     27.2270000000   17.9550000000   25.8690000000
H     28.3680000000   19.0170000000   26.7700000000
S     29.1270000000   16.6910000000   26.7500000000
C     28.3280000000   16.9240000000   28.3540000000
H     27.2470000000   17.0320000000   28.2280000000
H     28.4660000000   16.1040000000   29.0630000000
H     28.7350000000   17.8480000000   28.7720000000
O     30.4480000000   17.3340000000   27.0380000000
C     25.6350000000   22.2430000000   15.4730000000
H     24.9650000000   21.3800000000   15.4260000000
H     25.2450000000   23.0460000000   14.8420000000
H     26.6650000000   22.0170000000   15.1850000000
S     25.4930000000   22.6890000000   17.2180000000
C     26.8220000000   23.9130000000   17.1950000000
H     27.6490000000   23.2910000000   16.8410000000
H     26.6550000000   24.7660000000   16.5330000000
H     27.0730000000   24.2420000000   18.2060000000
O     26.1800000000   21.5830000000   17.9580000000
C     34.5790000000   24.3690000000   26.3330000000
H     35.5980000000   24.0240000000   26.5240000000
H     34.0280000000   23.7770000000   25.5980000000
H     34.6460000000   25.4290000000   26.0750000000
S     33.8670000000   24.4300000000   27.9930000000
C     33.6260000000   22.6390000000   28.0010000000
H     34.6380000000   22.2520000000   28.1470000000
H     32.9510000000   22.3510000000   28.8110000000
H     33.1760000000   22.4070000000   27.0330000000
O     32.4800000000   24.9620000000   27.8070000000
