272

C     28.5490000000   19.2280000000   26.4180000000
C     27.4490000000   20.2360000000   26.0460000000
C     28.0650000000   21.6430000000   26.1210000000
C     29.4580000000   21.8630000000   25.5110000000
C     30.4450000000   20.7520000000   25.9040000000
C     29.8690000000   19.3510000000   25.6390000000
H     27.3990000000   22.3280000000   25.5810000000
H     27.2360000000   19.9170000000   25.0190000000
H     28.7810000000   19.4010000000   27.4760000000
H     28.1910000000   18.2120000000   26.2120000000
H     29.4120000000   21.8150000000   24.4160000000
H     29.7810000000   22.8380000000   25.8950000000
H     31.4110000000   20.9980000000   25.4470000000
H     30.6210000000   20.8800000000   26.9790000000
H     29.7550000000   19.1830000000   24.5610000000
H     30.5230000000   18.5520000000   26.0080000000
H     28.1100000000   21.9210000000   27.1820000000
N     26.2100000000   20.2460000000   26.8220000000
H     26.2860000000   20.1340000000   27.8260000000
C     24.9420000000   20.4230000000   26.3090000000
H     24.2120000000   20.2040000000   27.1090000000
O     24.5730000000   20.6700000000   25.1750000000
C     27.3880000000   18.3060000000   21.2540000000
H     27.5940000000   18.0270000000   20.2180000000
H     28.1170000000   19.0640000000   21.5530000000
H     27.6370000000   17.4130000000   21.8320000000
S     25.7210000000   18.9440000000   21.5390000000
C     24.9110000000   17.4210000000   21.0020000000
H     25.2110000000   17.0450000000   20.0200000000
H     25.0780000000   16.7740000000   21.8680000000
H     23.8340000000   17.6050000000   20.9620000000
O     25.6320000000   19.8660000000   20.3630000000
C     31.3960000000   21.4010000000   32.2740000000
H     31.9360000000   21.1550000000   31.3570000000
H     30.5530000000   22.0480000000   32.0200000000
H     31.9750000000   22.0840000000   32.9010000000
S     30.8930000000   19.7980000000   32.9380000000
C     30.0090000000   20.7100000000   34.2240000000
H     29.7730000000   20.0300000000   35.0470000000
H     30.6210000000   21.4710000000   34.7150000000
H     29.1660000000   21.3000000000   33.8540000000
O     32.0850000000   19.4440000000   33.7710000000
C     33.0720000000   24.1300000000   31.0220000000
H     33.8480000000   23.4860000000   30.6010000000
H     32.7680000000   23.8360000000   32.0290000000
H     32.1530000000   24.1100000000   30.4300000000
S     33.7570000000   25.8000000000   30.9340000000
C     32.2310000000   26.7630000000   31.0150000000
H     32.3970000000   27.7870000000   30.6710000000
H     31.4640000000   26.2600000000   30.4210000000
H     32.1050000000   26.9320000000   32.0880000000
O     34.1860000000   25.9230000000   29.5050000000
C     34.2290000000   23.0850000000   27.6380000000
H     35.1360000000   22.7930000000   28.1740000000
H     34.3450000000   24.1360000000   27.3620000000
H     33.2930000000   22.8850000000   28.1660000000
S     34.2940000000   22.0290000000   26.1740000000
C     35.4350000000   20.8050000000   26.8550000000
H     36.3610000000   21.2430000000   27.2360000000
H     34.8580000000   20.1290000000   27.4920000000
H     35.7370000000   20.1680000000   26.0200000000
O     35.3100000000   22.6720000000   25.2830000000
C     27.5100000000   15.2310000000   25.1220000000
H     27.9530000000   16.2010000000   25.3580000000
H     26.4310000000   15.3910000000   25.0490000000
H     27.6920000000   14.5480000000   25.9570000000
S     28.3990000000   14.7710000000   23.6180000000
C     28.1330000000   12.9970000000   23.8350000000
H     28.7700000000   12.7490000000   24.6880000000
H     27.0690000000   12.7910000000   23.9720000000
H     28.5330000000   12.5560000000   22.9180000000
O     29.8350000000   15.0870000000   23.8990000000
C     21.8580000000   20.9270000000   20.3930000000
H     21.6520000000   21.2710000000   19.3760000000
H     22.8020000000   20.3770000000   20.4220000000
H     21.0360000000   20.3280000000   20.7960000000
S     21.9640000000   22.4420000000   21.3710000000
C     22.3300000000   21.6630000000   22.9600000000
H     23.1240000000   20.9230000000   22.8370000000
H     22.6910000000   22.4390000000   23.6400000000
H     21.3860000000   21.2180000000   23.2870000000
O     20.5380000000   22.8150000000   21.6300000000
C     19.1200000000   15.7990000000   23.1050000000
H     18.7570000000   16.2570000000   24.0290000000
H     18.2590000000   15.4240000000   22.5460000000
H     19.8780000000   15.0250000000   23.2500000000
S     19.7460000000   17.1910000000   22.1380000000
C     20.4870000000   16.1020000000   20.9010000000
H     20.7950000000   15.1910000000   21.4220000000
H     19.7730000000   15.8310000000   20.1190000000
H     21.3320000000   16.6370000000   20.4620000000
O     21.0030000000   17.7680000000   22.7110000000
C     30.6510000000   13.3160000000   26.8520000000
H     31.2380000000   14.1140000000   26.3910000000
H     29.7080000000   13.2420000000   26.3050000000
H     30.4930000000   13.5150000000   27.9150000000
S     31.5530000000   11.7620000000   26.6620000000
C     32.4010000000   12.1090000000   25.1040000000
H     33.1080000000   12.9310000000   25.2410000000
H     33.0750000000   11.2730000000   24.9000000000
H     31.7150000000   12.2630000000   24.2680000000
O     30.5420000000   10.7040000000   26.3440000000
C     31.5140000000   16.0430000000   31.8940000000
H     31.2620000000   15.5150000000   32.8170000000
H     32.0490000000   15.3720000000   31.2180000000
H     32.0920000000   16.9480000000   32.0990000000
S     30.0380000000   16.4490000000   30.9330000000
C     30.8080000000   17.0260000000   29.4040000000
H     31.3170000000   16.2520000000   28.8230000000
H     30.0100000000   17.5740000000   28.8960000000
H     31.5230000000   17.8210000000   29.6300000000
O     29.4140000000   17.6250000000   31.6180000000
C     28.0530000000   22.6680000000   21.1950000000
H     28.9650000000   22.3070000000   21.6770000000
H     27.3710000000   21.8510000000   20.9470000000
H     28.2420000000   23.2300000000   20.2760000000
S     27.3240000000   23.7980000000   22.4020000000
C     26.1970000000   22.6120000000   23.1680000000
H     26.6670000000   21.6410000000   23.3440000000
H     25.7530000000   23.0990000000   24.0390000000
H     25.4100000000   22.4510000000   22.4260000000
O     26.2840000000   24.5460000000   21.6280000000
C     31.0540000000   25.5830000000   24.3750000000
H     30.2910000000   26.2780000000   24.7350000000
H     31.3640000000   25.8910000000   23.3730000000
H     30.6880000000   24.5540000000   24.3530000000
S     32.4950000000   25.8430000000   25.4340000000
C     31.6600000000   25.5980000000   27.0180000000
H     31.3430000000   24.5640000000   27.1800000000
H     32.4420000000   25.8580000000   27.7370000000
H     30.7780000000   26.2300000000   27.1450000000
O     32.6850000000   27.3200000000   25.2850000000
C     18.7480000000   19.5440000000   26.8700000000
H     17.8880000000   20.2180000000   26.8490000000
H     18.6680000000   18.6810000000   26.2050000000
H     19.1130000000   19.2670000000   27.8620000000
S     19.9380000000   20.5520000000   25.9560000000
C     21.1200000000   19.1870000000   25.8800000000
H     21.2570000000   18.9040000000   24.8330000000
H     22.1190000000   19.5650000000   26.1090000000
H     20.9310000000   18.3200000000   26.5170000000
O     20.4340000000   21.4450000000   27.0510000000
C     21.5750000000   17.4370000000   30.0330000000
H     21.4900000000   18.5020000000   29.8000000000
H     22.3620000000   16.9510000000   29.4500000000
H     20.5670000000   17.0890000000   29.7930000000
S     21.7830000000   17.0780000000   31.7910000000
C     21.0170000000   15.4450000000   31.6820000000
H     20.7180000000   15.1760000000   32.6980000000
H     20.1200000000   15.4950000000   31.0590000000
H     21.7220000000   14.7210000000   31.2660000000
O     20.6390000000   17.9150000000   32.2740000000
C     26.2360000000   18.1380000000   30.6370000000
H     26.1100000000   17.6070000000   29.6900000000
H     26.9400000000   17.6020000000   31.2780000000
H     25.2490000000   18.3120000000   31.0710000000
S     27.1760000000   19.6480000000   30.3140000000
C     27.3680000000   20.2200000000   32.0170000000
H     26.4330000000   20.3720000000   32.5620000000
H     28.0500000000   19.5400000000   32.5350000000
H     27.9210000000   21.1520000000   31.8760000000
O     26.0580000000   20.4230000000   29.6880000000
C     33.7200000000   15.8780000000   25.0610000000
H     34.3710000000   15.0070000000   24.9460000000
H     33.3790000000   16.0670000000   26.0820000000
H     32.8320000000   15.5690000000   24.5050000000
S     34.5600000000   17.3760000000   24.5000000000
C     33.0990000000   18.3810000000   24.8500000000
H     32.2410000000   17.8520000000   24.4280000000
H     32.8350000000   18.3790000000   25.9110000000
H     33.2050000000   19.3910000000   24.4460000000
O     34.4480000000   17.2790000000   23.0110000000
C     30.9820000000   20.1270000000   19.4310000000
H     30.8930000000   19.0480000000   19.5820000000
H     29.9540000000   20.4480000000   19.2470000000
H     31.6120000000   20.4150000000   18.5850000000
S     31.7700000000   20.7200000000   20.9450000000
C     32.7390000000   19.2220000000   21.2330000000
H     32.0570000000   18.3710000000   21.1670000000
H     33.5920000000   19.2450000000   20.5510000000
H     33.1400000000   19.2310000000   22.2500000000
O     30.7280000000   20.5270000000   22.0030000000
C     35.2760000000   18.2600000000   30.2370000000
H     36.1650000000   18.0580000000   30.8400000000
H     35.5010000000   19.1710000000   29.6750000000
H     34.3950000000   18.3530000000   30.8770000000
S     35.0720000000   16.9300000000   29.0310000000
C     36.4940000000   17.0750000000   27.9270000000
H     36.7570000000   16.1100000000   27.4870000000
H     36.3410000000   17.8810000000   27.2040000000
H     37.3520000000   17.2770000000   28.5730000000
O     33.7940000000   17.2800000000   28.3330000000
C     26.5970000000   25.2590000000   25.9800000000
H     25.6620000000   25.7280000000   25.6650000000
H     27.1810000000   24.8840000000   25.1360000000
H     26.4370000000   24.3980000000   26.6340000000
S     27.7760000000   26.3730000000   26.7770000000
C     26.6040000000   27.2420000000   27.8430000000
H     26.9680000000   28.1220000000   28.3800000000
H     25.7960000000   27.5460000000   27.1720000000
H     26.2290000000   26.3750000000   28.3930000000
O     28.0180000000   27.5120000000   25.8360000000
C     21.2600000000   23.1620000000   29.7830000000
H     21.2230000000   24.2540000000   29.7880000000
H     21.2840000000   22.8550000000   28.7350000000
H     20.3860000000   22.7220000000   30.2710000000
S     22.8580000000   22.7960000000   30.5430000000
C     22.6960000000   20.9990000000   30.4500000000
H     22.8700000000   20.6270000000   29.4370000000
H     23.5320000000   20.6290000000   31.0510000000
H     21.7310000000   20.6260000000   30.8020000000
O     22.7630000000   23.1840000000   31.9860000000
C     19.4950000000   25.1960000000   27.1930000000
H     18.8190000000   25.1240000000   28.0490000000
H     20.5130000000   24.9640000000   27.5170000000
H     19.3380000000   26.1430000000   26.6720000000
S     18.9810000000   23.9510000000   25.9880000000
C     20.3310000000   24.1520000000   24.8040000000
H     21.2970000000   23.9090000000   25.2530000000
H     20.0600000000   23.4940000000   23.9740000000
H     20.3700000000   25.1940000000   24.4770000000
O     17.7520000000   24.4660000000   25.3050000000
C     35.3470000000   25.3610000000   23.0920000000
H     35.5210000000   26.4170000000   22.8710000000
H     35.1330000000   25.2840000000   24.1610000000
H     36.1290000000   24.7820000000   22.5930000000
S     33.8530000000   24.9240000000   22.1750000000
C     33.6430000000   23.1560000000   22.4840000000
H     34.4630000000   22.5430000000   22.1020000000
H     33.6720000000   22.9840000000   23.5630000000
H     32.6660000000   22.9530000000   22.0380000000
O     34.4510000000   24.9500000000   20.8030000000
C     27.2340000000   23.5780000000   29.6920000000
H     26.7730000000   24.5670000000   29.6340000000
H     27.2280000000   23.0220000000   28.7510000000
H     26.8350000000   23.0430000000   30.5580000000
S     28.9960000000   23.8710000000   29.9630000000
C     28.7900000000   25.3850000000   30.9280000000
H     28.2040000000   25.0740000000   31.7960000000
H     29.7420000000   25.7050000000   31.3600000000
H     28.3120000000   26.1070000000   30.2610000000
O     29.4650000000   24.2990000000   28.6080000000
C     25.0650000000   11.5320000000   28.5660000000
H     25.1660000000   11.8090000000   29.6190000000
H     24.1820000000   12.0530000000   28.1890000000
H     24.8860000000   10.4560000000   28.5120000000
S     26.4780000000   11.9970000000   27.5400000000
C     27.7220000000   11.2400000000   28.6090000000
H     28.6700000000   11.6570000000   28.2580000000
H     27.4850000000   11.4780000000   29.6490000000
H     27.7190000000   10.1500000000   28.5320000000
O     26.7960000000   13.4310000000   27.8300000000
C     23.8320000000   17.2600000000   24.9920000000
H     22.7730000000   16.9880000000   25.0030000000
H     23.8630000000   18.2650000000   24.5630000000
H     24.4230000000   16.6890000000   24.2730000000
S     24.5650000000   17.1360000000   26.6390000000
C     24.2640000000   15.3920000000   27.0060000000
H     23.1800000000   15.2520000000   26.9750000000
H     24.7170000000   14.7900000000   26.2140000000
H     24.6270000000   15.1060000000   27.9960000000
O     23.4340000000   17.7340000000   27.4160000000
C     30.3300000000   26.5270000000   18.5140000000
H     30.8940000000   26.5260000000   17.5770000000
H     29.3890000000   26.0040000000   18.3240000000
H     30.2200000000   27.5610000000   18.8480000000
S     31.2030000000   25.6160000000   19.8080000000
C     31.1290000000   23.9990000000   19.0050000000
H     31.3690000000   23.3070000000   19.8170000000
H     30.0990000000   23.8880000000   18.6590000000
H     31.8320000000   23.9940000000   18.1680000000
O     30.2200000000   25.4420000000   20.9230000000
