282

C     26.2790000000   20.1600000000   27.3140000000
C     26.2420000000   21.6760000000   27.0570000000
C     27.6220000000   22.0800000000   26.5140000000
C     28.0340000000   21.2930000000   25.2590000000
C     27.9690000000   19.7740000000   25.4840000000
C     26.6040000000   19.3480000000   26.0500000000
H     27.7370000000   23.1660000000   26.4150000000
H     25.5360000000   21.7790000000   26.2240000000
H     27.0420000000   19.9700000000   28.0800000000
H     25.3440000000   19.8240000000   27.7790000000
H     27.3750000000   21.4930000000   24.4050000000
H     29.0320000000   21.6330000000   24.9540000000
H     28.2510000000   19.1250000000   24.6460000000
H     28.6670000000   19.5340000000   26.2950000000
H     25.7820000000   19.5640000000   25.3570000000
H     26.6630000000   18.2890000000   26.3300000000
H     28.3300000000   21.9190000000   27.3360000000
N     25.9150000000   22.4950000000   28.2230000000
H     26.0040000000   22.1140000000   29.1570000000
C     25.4860000000   23.8060000000   28.2240000000
H     25.2620000000   24.1020000000   29.2650000000
O     25.3680000000   24.4650000000   27.2070000000
C     23.9950000000   29.9240000000   24.1570000000
H     23.9920000000   30.4120000000   23.1800000000
H     23.3050000000   30.4320000000   24.8360000000
H     24.9740000000   29.7180000000   24.5960000000
S     23.2350000000   28.3050000000   23.8960000000
C     21.7220000000   28.9640000000   23.1600000000
H     21.0140000000   28.2310000000   22.7650000000
H     21.1750000000   29.5440000000   23.9080000000
H     22.1430000000   29.6250000000   22.3980000000
O     22.7100000000   27.9990000000   25.2640000000
C     28.7920000000   27.1950000000   31.0080000000
H     27.8590000000   27.4160000000   30.4840000000
H     28.9860000000   27.7740000000   31.9140000000
H     29.5960000000   27.3760000000   30.2900000000
S     29.1070000000   25.4440000000   31.3240000000
C     29.7900000000   25.6070000000   32.9890000000
H     30.2540000000   24.6330000000   33.1660000000
H     30.6100000000   26.3230000000   32.8970000000
H     29.0780000000   25.8200000000   33.7910000000
O     30.3540000000   25.1450000000   30.5510000000
C     29.4990000000   21.0390000000   32.2690000000
H     28.6300000000   20.7290000000   31.6840000000
H     29.5900000000   22.0800000000   31.9480000000
H     30.3180000000   20.3210000000   32.1880000000
S     28.9070000000   21.0230000000   33.9760000000
C     30.5650000000   21.1670000000   34.6800000000
H     30.4050000000   21.4370000000   35.7270000000
H     30.9500000000   20.1480000000   34.5860000000
H     31.0250000000   22.0320000000   34.1960000000
O     28.6440000000   19.5700000000   34.2250000000
C     31.5480000000   21.1210000000   29.6000000000
H     31.0210000000   21.5020000000   28.7200000000
H     31.5210000000   20.0300000000   29.6600000000
H     31.2210000000   21.6980000000   30.4690000000
S     33.2540000000   21.6740000000   29.3780000000
C     32.7730000000   23.4130000000   29.2800000000
H     32.2920000000   23.6490000000   28.3280000000
H     32.1080000000   23.7740000000   30.0690000000
H     33.7530000000   23.8960000000   29.2250000000
O     33.3820000000   21.2900000000   27.9370000000
C     30.5420000000   14.8310000000   27.3310000000
H     31.5840000000   15.1200000000   27.1740000000
H     29.9410000000   15.5230000000   27.9260000000
H     30.4740000000   13.8510000000   27.8100000000
S     29.7910000000   14.8120000000   25.6870000000
C     30.3740000000   16.4760000000   25.2950000000
H     31.4610000000   16.4880000000   25.1790000000
H     29.8290000000   16.7500000000   24.3880000000
H     30.1190000000   17.1600000000   26.1090000000
O     28.3280000000   15.0500000000   25.9000000000
C     24.3870000000   18.8180000000   30.1520000000
H     23.9140000000   19.6880000000   29.6910000000
H     25.0630000000   18.3300000000   29.4460000000
H     23.6820000000   18.1580000000   30.6650000000
S     25.5190000000   19.5650000000   31.3470000000
C     24.0330000000   20.0940000000   32.2290000000
H     23.5690000000   19.1700000000   32.5840000000
H     24.2990000000   20.6450000000   33.1350000000
H     23.3990000000   20.6630000000   31.5450000000
O     26.0430000000   20.7630000000   30.6180000000
C     24.9170000000   21.0100000000   22.8820000000
H     25.9980000000   20.8510000000   22.8670000000
H     24.6960000000   21.9330000000   23.4240000000
H     24.4670000000   20.1370000000   23.3600000000
S     24.5140000000   21.3270000000   21.1490000000
C     22.8060000000   20.7920000000   21.3930000000
H     22.7690000000   19.8260000000   21.9020000000
H     22.3790000000   21.6330000000   21.9450000000
H     22.3350000000   20.6390000000   20.4190000000
O     25.3100000000   20.3060000000   20.3970000000
C     26.6060000000   27.9010000000   27.3440000000
H     26.4150000000   28.0140000000   26.2740000000
H     27.2050000000   28.7430000000   27.7000000000
H     27.1610000000   26.9780000000   27.5310000000
S     25.0090000000   27.7440000000   28.1730000000
C     24.6650000000   29.5110000000   28.0210000000
H     25.5680000000   29.9880000000   28.4110000000
H     24.4750000000   29.6020000000   26.9490000000
H     23.7460000000   29.7280000000   28.5710000000
O     25.3270000000   27.6130000000   29.6300000000
C     21.2710000000   16.4510000000   29.9190000000
H     22.3440000000   16.2400000000   29.8900000000
H     20.6710000000   15.5500000000   29.7720000000
H     20.9400000000   17.2510000000   29.2540000000
S     20.8050000000   17.1470000000   31.5200000000
C     19.0360000000   17.1940000000   31.1530000000
H     18.4950000000   17.5830000000   32.0190000000
H     18.8300000000   17.9350000000   30.3760000000
H     18.6190000000   16.2270000000   30.8630000000
O     21.3110000000   18.5460000000   31.3550000000
C     33.1010000000   15.6130000000   31.3270000000
H     32.5000000000   16.1960000000   32.0290000000
H     32.6820000000   14.6610000000   30.9900000000
H     34.1490000000   15.5290000000   31.6250000000
S     33.0240000000   16.6540000000   29.8510000000
C     33.8600000000   18.1500000000   30.4230000000
H     34.8250000000   17.8530000000   30.8420000000
H     33.9930000000   18.9070000000   29.6460000000
H     33.2530000000   18.5570000000   31.2350000000
O     31.5590000000   16.9140000000   30.0180000000
C     26.0420000000   24.7580000000   24.2080000000
H     26.8820000000   25.0010000000   24.8640000000
H     25.1730000000   25.4160000000   24.2980000000
H     25.7010000000   23.7340000000   24.3820000000
S     26.6440000000   24.7250000000   22.5050000000
C     26.4680000000   26.4910000000   22.1640000000
H     25.4410000000   26.6540000000   21.8270000000
H     26.5450000000   27.0240000000   23.1150000000
H     27.2420000000   26.6820000000   21.4170000000
O     25.4790000000   24.1560000000   21.7570000000
C     29.4780000000   25.9730000000   26.1210000000
H     28.7230000000   26.5630000000   25.5940000000
H     29.1720000000   25.0330000000   26.5870000000
H     29.9390000000   26.5670000000   26.9140000000
S     30.8820000000   25.4920000000   25.0900000000
C     30.6120000000   26.9390000000   24.0410000000
H     29.5750000000   26.8510000000   23.7090000000
H     30.5620000000   27.8980000000   24.5630000000
H     31.2300000000   26.9750000000   23.1400000000
O     30.2710000000   24.4580000000   24.1960000000
C     24.9730000000   29.7580000000   32.3750000000
H     24.8550000000   29.1320000000   31.4870000000
H     24.0240000000   29.9270000000   32.8910000000
H     25.4900000000   30.6760000000   32.0860000000
S     26.2220000000   29.1180000000   33.5140000000
C     25.2920000000   27.8090000000   34.3420000000
H     24.3270000000   28.1600000000   34.7170000000
H     25.1480000000   27.0220000000   33.5980000000
H     25.8610000000   27.4850000000   35.2180000000
O     26.5220000000   30.1520000000   34.5540000000
C     28.1890000000   14.9390000000   30.1380000000
H     27.5010000000   15.0980000000   30.9730000000
H     28.0320000000   13.9910000000   29.6180000000
H     29.2170000000   14.9740000000   30.5060000000
S     27.8360000000   16.3280000000   29.0360000000
C     28.1960000000   17.5820000000   30.2860000000
H     27.7700000000   17.3970000000   31.2760000000
H     29.2870000000   17.5490000000   30.3430000000
H     27.8550000000   18.5530000000   29.9190000000
O     26.3420000000   16.3190000000   28.9560000000
C     31.9970000000   21.3730000000   24.2100000000
H     32.9910000000   21.4000000000   23.7540000000
H     31.2710000000   21.8670000000   23.5600000000
H     31.9070000000   21.8950000000   25.1650000000
S     31.4750000000   19.6600000000   24.4550000000
C     33.0690000000   19.4040000000   25.2680000000
H     33.8430000000   19.9270000000   24.7000000000
H     32.9230000000   19.8320000000   26.2630000000
H     33.2520000000   18.3270000000   25.2560000000
O     31.6540000000   19.0290000000   23.1100000000
C     28.9760000000   19.6720000000   19.9590000000
H     29.0390000000   18.8150000000   20.6340000000
H     27.9990000000   20.1610000000   19.9060000000
H     29.2630000000   19.3690000000   18.9490000000
S     30.1800000000   20.9350000000   20.4280000000
C     29.1630000000   21.6770000000   21.7240000000
H     28.2380000000   22.1270000000   21.3560000000
H     29.0270000000   20.8000000000   22.3640000000
H     29.7370000000   22.3480000000   22.3690000000
O     30.0750000000   21.8760000000   19.2690000000
C     22.1830000000   25.7610000000   29.2330000000
H     21.6560000000   26.5650000000   28.7130000000
H     23.2650000000   25.9150000000   29.2050000000
H     21.8840000000   24.8040000000   28.7980000000
S     21.6870000000   25.8460000000   30.9690000000
C     22.7920000000   27.1270000000   31.6040000000
H     22.4470000000   28.0310000000   31.0960000000
H     22.6550000000   27.1190000000   32.6880000000
H     23.8350000000   26.9680000000   31.3190000000
O     22.5530000000   24.7140000000   31.4280000000
C     24.3410000000   13.6630000000   28.8380000000
H     23.7590000000   13.6090000000   29.7620000000
H     25.1340000000   14.4160000000   28.8300000000
H     23.6670000000   14.0490000000   28.0690000000
S     25.0020000000   12.1370000000   28.1330000000
C     25.8020000000   12.9830000000   26.7500000000
H     25.1490000000   13.7880000000   26.4050000000
H     26.6760000000   13.4190000000   27.2400000000
H     26.0380000000   12.2480000000   25.9760000000
O     23.6750000000   11.6120000000   27.6820000000
C     27.4540000000   17.9130000000   22.4650000000
H     28.4690000000   17.8560000000   22.8650000000
H     27.3000000000   18.8000000000   21.8450000000
H     26.7930000000   17.8640000000   23.3340000000
S     26.9650000000   16.5760000000   21.3530000000
C     27.1320000000   15.0910000000   22.3700000000
H     28.1950000000   14.8400000000   22.3460000000
H     26.7180000000   15.2780000000   23.3640000000
H     26.6700000000   14.2460000000   21.8540000000
O     28.2160000000   16.5590000000   20.5320000000
C     22.6590000000   21.8410000000   28.0820000000
H     21.8660000000   22.5240000000   28.3960000000
H     22.9970000000   21.1500000000   28.8580000000
H     23.4300000000   22.4980000000   27.6710000000
S     22.1860000000   20.8720000000   26.6320000000
C     21.7550000000   19.3520000000   27.5090000000
H     20.7220000000   19.4410000000   27.8550000000
H     21.8130000000   18.4820000000   26.8500000000
H     22.4870000000   19.1750000000   28.3020000000
O     23.4170000000   20.3550000000   25.9560000000
C     17.9110000000   24.8530000000   30.8320000000
H     17.2530000000   23.9860000000   30.7360000000
H     18.7410000000   24.5580000000   31.4790000000
H     17.4950000000   25.7850000000   31.2230000000
S     18.6810000000   25.2410000000   29.2440000000
C     17.1510000000   25.0460000000   28.3020000000
H     16.8220000000   24.0060000000   28.3720000000
H     16.5190000000   25.7280000000   28.8770000000
H     17.4170000000   25.3490000000   27.2860000000
O     19.4500000000   24.0430000000   28.7800000000
C     22.6620000000   24.1280000000   25.2330000000
H     23.4720000000   23.5440000000   24.7890000000
H     22.8470000000   25.1980000000   25.3540000000
H     22.3270000000   23.7240000000   26.1920000000
S     21.2200000000   24.1010000000   24.1440000000
C     20.1570000000   24.9090000000   25.3610000000
H     20.3270000000   25.9860000000   25.4500000000
H     19.1090000000   24.7440000000   25.0980000000
H     20.2750000000   24.4520000000   26.3470000000
O     20.7920000000   22.6760000000   24.3100000000
C     35.3660000000   23.1310000000   25.7490000000
H     35.8390000000   22.6980000000   24.8640000000
H     36.2370000000   23.1150000000   26.4100000000
H     34.6620000000   22.4230000000   26.1930000000
S     34.6820000000   24.7940000000   25.5680000000
C     34.1040000000   24.4360000000   23.8940000000
H     33.4390000000   25.2380000000   23.5640000000
H     35.0170000000   24.5280000000   23.3010000000
H     33.5980000000   23.4680000000   23.9460000000
O     35.7790000000   25.8020000000   25.4170000000
C     25.8440000000   23.5790000000   32.3470000000
H     26.8490000000   23.3950000000   31.9610000000
H     25.1340000000   22.8010000000   32.0550000000
H     25.4890000000   24.4730000000   31.8270000000
S     25.7580000000   23.6810000000   34.1490000000
C     24.0690000000   24.2390000000   34.4640000000
H     23.5130000000   24.3680000000   33.5320000000
H     23.4650000000   23.6780000000   35.1820000000
H     24.3240000000   25.1890000000   34.9390000000
O     26.6440000000   24.8450000000   34.4680000000
C     24.2770000000   16.6270000000   24.8790000000
H     24.5790000000   17.4650000000   25.5130000000
H     23.3810000000   16.1100000000   25.2300000000
H     25.0500000000   15.8900000000   24.6500000000
S     23.8390000000   17.3980000000   23.3040000000
C     22.0710000000   17.6000000000   23.6220000000
H     21.8320000000   18.3460000000   24.3850000000
H     21.6760000000   17.9220000000   22.6550000000
H     21.6900000000   16.6060000000   23.8680000000
O     23.8850000000   16.2470000000   22.3490000000
C     31.7660000000   24.6230000000   20.6370000000
H     32.3020000000   25.2200000000   19.8950000000
H     32.1080000000   24.7000000000   21.6730000000
H     31.7030000000   23.6000000000   20.2590000000
S     30.0850000000   25.2770000000   20.5140000000
C     29.9520000000   25.2330000000   18.7130000000
H     30.8010000000   25.8420000000   18.3920000000
H     30.0300000000   24.1970000000   18.3740000000
H     28.9680000000   25.6420000000   18.4670000000
O     30.1100000000   26.7660000000   20.6620000000
