292

C     23.4330000000   15.9810000000   26.1420000000
C     22.0860000000   16.5930000000   26.5630000000
C     22.2070000000   17.8860000000   27.3850000000
C     23.1590000000   18.8700000000   26.6850000000
C     24.5060000000   18.1800000000   26.4140000000
C     24.3210000000   17.0140000000   25.4290000000
H     21.2200000000   18.3640000000   27.3820000000
H     21.5530000000   16.9080000000   25.6580000000
H     23.9300000000   15.5570000000   27.0240000000
H     23.2710000000   15.0960000000   25.5140000000
H     22.7010000000   19.2830000000   25.7770000000
H     23.3450000000   19.7690000000   27.2850000000
H     25.1710000000   18.9120000000   25.9390000000
H     24.7950000000   17.8310000000   27.4120000000
H     23.8340000000   17.2260000000   24.4700000000
H     25.2920000000   16.5360000000   25.2520000000
H     22.4980000000   17.7650000000   28.4360000000
N     21.2200000000   15.6360000000   27.2500000000
H     21.6430000000   15.2130000000   28.0670000000
C     20.1450000000   14.9310000000   26.7510000000
H     19.8840000000   14.0970000000   27.4270000000
O     19.6060000000   15.2910000000   25.7190000000
C     18.8350000000   16.6190000000   21.8610000000
H     18.7410000000   17.3170000000   22.6980000000
H     18.6760000000   17.0910000000   20.8880000000
H     18.1830000000   15.7450000000   21.9440000000
S     20.4730000000   15.8650000000   21.9650000000
C     21.1680000000   17.4780000000   21.5400000000
H     20.7340000000   17.7820000000   20.5840000000
H     20.9290000000   18.1700000000   22.3520000000
H     22.2060000000   17.2360000000   21.2980000000
O     20.3810000000   14.9530000000   20.7820000000
C     24.5080000000   21.6810000000   32.4860000000
H     24.5520000000   22.6240000000   33.0360000000
H     24.5320000000   20.9270000000   33.2770000000
H     25.3620000000   21.7010000000   31.8040000000
S     23.0250000000   21.4120000000   31.4890000000
C     23.6950000000   19.8550000000   30.8640000000
H     22.9070000000   19.5700000000   30.1630000000
H     24.6480000000   19.9690000000   30.3410000000
H     23.8070000000   19.1270000000   31.6720000000
O     23.2180000000   22.3580000000   30.3440000000
C     27.9630000000   13.2200000000   24.1360000000
H     26.9260000000   13.5560000000   24.0550000000
H     27.9970000000   12.2370000000   24.6130000000
H     28.6550000000   13.8330000000   24.7180000000
S     28.6630000000   12.9260000000   22.4970000000
C     29.9720000000   11.7340000000   22.8590000000
H     29.5460000000   10.8000000000   23.2320000000
H     30.4900000000   11.5820000000   21.9090000000
H     30.6610000000   12.1650000000   23.5910000000
O     29.5090000000   14.1320000000   22.2290000000
C     19.6200000000   25.3220000000   22.2620000000
H     19.2590000000   25.4070000000   23.2900000000
H     19.5220000000   26.3200000000   21.8270000000
H     19.1520000000   24.4940000000   21.7240000000
S     21.3780000000   24.9200000000   22.3730000000
C     21.1190000000   23.5730000000   23.5500000000
H     20.4610000000   23.7280000000   24.4090000000
H     20.7470000000   22.7710000000   22.9070000000
H     22.1520000000   23.3200000000   23.8020000000
O     22.0790000000   25.9690000000   23.1780000000
C     13.3830000000    9.6690000000   27.6910000000
H     14.0980000000    8.8540000000   27.5500000000
H     12.4450000000    9.4370000000   28.2030000000
H     13.1830000000   10.0550000000   26.6880000000
S     14.1580000000   10.9780000000   28.6650000000
C     15.0920000000    9.8840000000   29.7590000000
H     15.6680000000   10.5870000000   30.3660000000
H     14.4360000000    9.3190000000   30.4260000000
H     15.8350000000    9.2730000000   29.2400000000
O     13.1390000000   11.7000000000   29.4910000000
C     26.2530000000   15.6410000000   34.7990000000
H     25.4730000000   14.9870000000   35.1970000000
H     26.8120000000   15.2460000000   33.9470000000
H     26.9890000000   15.9390000000   35.5490000000
S     25.2790000000   17.1080000000   34.3940000000
C     26.5620000000   17.9650000000   33.4540000000
H     27.2980000000   18.2320000000   34.2180000000
H     26.9860000000   17.3250000000   32.6760000000
H     26.2550000000   18.9510000000   33.0960000000
O     25.1120000000   17.8680000000   35.6730000000
C     15.4440000000   14.2940000000   22.8760000000
H     14.4020000000   14.2650000000   22.5480000000
H     15.9980000000   14.9930000000   22.2440000000
H     15.9410000000   13.3430000000   22.6700000000
S     15.1690000000   14.7790000000   24.5950000000
C     16.6400000000   13.8980000000   25.1650000000
H     17.5610000000   14.0980000000   24.6110000000
H     16.7420000000   14.1570000000   26.2220000000
H     16.4440000000   12.8230000000   25.1730000000
O     14.1550000000   13.8500000000   25.1850000000
C     22.5840000000    7.8840000000   29.9100000000
H     22.8200000000    6.8700000000   30.2430000000
H     21.5190000000    8.1130000000   29.9920000000
H     22.8160000000    7.9440000000   28.8430000000
S     23.5240000000    9.1010000000   30.8580000000
C     23.1110000000    8.5380000000   32.5250000000
H     23.4650000000    9.3480000000   33.1690000000
H     22.0420000000    8.5340000000   32.7520000000
H     23.6020000000    7.5850000000   32.7390000000
O     22.7510000000   10.3610000000   30.6270000000
C     19.7400000000   12.5330000000   23.5590000000
H     19.6770000000   13.3020000000   22.7850000000
H     18.8120000000   11.9750000000   23.7070000000
H     19.8660000000   12.8700000000   24.5910000000
S     21.0030000000   11.2940000000   23.1920000000
C     20.7140000000   11.1990000000   21.4110000000
H     20.8760000000   12.0990000000   20.8120000000
H     21.3450000000   10.4490000000   20.9280000000
H     19.7010000000   10.8860000000   21.1430000000
O     20.5690000000   10.0580000000   23.9160000000
C     28.1620000000   13.8720000000   27.8050000000
H     27.1300000000   13.6430000000   27.5250000000
H     28.8290000000   14.1640000000   26.9900000000
H     28.6330000000   12.9670000000   28.1950000000
S     28.2370000000   15.0590000000   29.1650000000
C     27.2840000000   16.4850000000   28.5960000000
H     27.8050000000   17.0620000000   27.8270000000
H     26.3050000000   16.0430000000   28.3930000000
H     27.1470000000   17.2010000000   29.4100000000
O     29.7060000000   15.3470000000   29.1810000000
C     23.9740000000   20.8840000000   21.7950000000
H     23.9800000000   21.6670000000   21.0330000000
H     23.4770000000   20.0050000000   21.3760000000
H     23.3650000000   21.1200000000   22.6720000000
S     25.6110000000   20.3640000000   22.3580000000
C     26.2090000000   20.0090000000   20.6900000000
H     27.1570000000   19.4820000000   20.8260000000
H     25.4490000000   19.3830000000   20.2150000000
H     26.5290000000   20.9550000000   20.2450000000
O     25.2770000000   18.9940000000   22.8600000000
C     15.2190000000   14.4100000000   28.9820000000
H     15.2920000000   15.4420000000   29.3350000000
H     15.3940000000   14.1570000000   27.9330000000
H     14.2180000000   14.0850000000   29.2760000000
S     16.3900000000   13.3710000000   29.8850000000
C     16.1770000000   13.9810000000   31.5730000000
H     15.9760000000   15.0550000000   31.6020000000
H     15.5360000000   13.2800000000   32.1120000000
H     17.1810000000   13.8540000000   31.9860000000
O     17.6640000000   14.0630000000   29.5110000000
C     17.7370000000   17.6020000000   26.3320000000
H     18.4660000000   17.3680000000   27.1130000000
H     17.9220000000   16.9740000000   25.4570000000
H     17.7350000000   18.6820000000   26.1660000000
S     16.2850000000   17.1480000000   27.3070000000
C     15.2400000000   18.1610000000   26.2360000000
H     15.4630000000   17.9420000000   25.1890000000
H     14.1800000000   18.0060000000   26.4540000000
H     15.4440000000   19.2170000000   26.4300000000
O     16.4260000000   18.0240000000   28.5130000000
C     18.6960000000   17.9510000000   30.6650000000
H     18.5850000000   18.1280000000   31.7370000000
H     18.6690000000   18.8690000000   30.0720000000
H     17.9140000000   17.2560000000   30.3500000000
S     20.3000000000   17.1470000000   30.4530000000
C     19.9590000000   15.7950000000   31.6020000000
H     19.0670000000   15.2640000000   31.2590000000
H     20.7770000000   15.0700000000   31.5760000000
H     19.8690000000   16.1740000000   32.6230000000
O     21.0900000000   18.1970000000   31.1700000000
C     23.3130000000   13.6520000000   31.9430000000
H     22.3660000000   14.1100000000   32.2430000000
H     23.1770000000   12.5820000000   31.7690000000
H     23.9620000000   13.6260000000   32.8220000000
S     23.8830000000   14.4630000000   30.4320000000
C     24.0490000000   16.1750000000   30.9860000000
H     23.1720000000   16.5200000000   31.5390000000
H     25.0090000000   16.0640000000   31.4960000000
H     24.2290000000   16.7960000000   30.1050000000
O     22.6740000000   14.3760000000   29.5540000000
C     26.3950000000   21.8850000000   28.4220000000
H     25.6950000000   21.2010000000   27.9360000000
H     26.0050000000   22.5260000000   29.2170000000
H     26.9450000000   22.5240000000   27.7280000000
S     27.6460000000   20.7370000000   29.0420000000
C     28.1680000000   20.1330000000   27.4210000000
H     28.6570000000   19.1820000000   27.6470000000
H     27.2920000000   19.9980000000   26.7800000000
H     28.9380000000   20.7890000000   27.0070000000
O     26.8240000000   19.5800000000   29.5170000000
C     28.1210000000   17.7550000000   24.4860000000
H     27.1290000000   17.7460000000   24.0270000000
H     28.8480000000   17.0610000000   24.0550000000
H     28.1000000000   17.4120000000   25.5240000000
S     28.9150000000   19.3720000000   24.3500000000
C     29.3280000000   19.0300000000   22.6240000000
H     28.4290000000   18.7130000000   22.0890000000
H     29.7630000000   19.9270000000   22.1750000000
H     29.9860000000   18.1590000000   22.6810000000
O     30.2450000000   19.3180000000   25.0350000000
C     20.1650000000   12.2050000000   31.0610000000
H     20.7580000000   13.1000000000   30.8580000000
H     20.5700000000   11.4200000000   30.4170000000
H     19.1380000000   12.3410000000   30.7120000000
S     20.3480000000   11.5360000000   32.7300000000
C     18.8290000000   10.5770000000   32.5340000000
H     18.8100000000    9.9040000000   31.6730000000
H     18.6990000000    9.9060000000   33.3880000000
H     18.0070000000   11.2870000000   32.6500000000
O     19.9290000000   12.6890000000   33.5890000000
C     26.8990000000   16.0330000000   21.2040000000
H     27.7670000000   16.1240000000   20.5450000000
H     26.3240000000   16.9620000000   21.2290000000
H     27.1180000000   15.7180000000   22.2270000000
S     25.6780000000   14.8210000000   20.6510000000
C     24.5450000000   15.2850000000   21.9800000000
H     24.3370000000   16.3550000000   21.8910000000
H     23.6190000000   14.7290000000   21.8090000000
H     25.0120000000   14.9420000000   22.9060000000
O     26.0740000000   13.4310000000   21.0430000000
C     24.4130000000   25.8710000000   25.8210000000
H     24.3140000000   26.6750000000   26.5560000000
H     24.8530000000   26.1000000000   24.8470000000
H     23.4340000000   25.4470000000   25.5840000000
S     25.2060000000   24.3820000000   26.4680000000
C     26.6820000000   25.2950000000   26.9700000000
H     27.0160000000   25.7460000000   26.0320000000
H     26.5620000000   26.1110000000   27.6880000000
H     27.4510000000   24.6000000000   27.3160000000
O     25.6630000000   23.5880000000   25.2850000000
C     20.0330000000    8.8650000000   27.6770000000
H     20.4040000000    8.9140000000   26.6500000000
H     20.6850000000    9.3290000000   28.4210000000
H     19.8360000000    7.8150000000   27.9060000000
S     18.4880000000    9.7950000000   27.7930000000
C     19.2600000000   11.3960000000   27.4660000000
H     20.1200000000   11.5790000000   28.1150000000
H     19.4860000000   11.4430000000   26.3970000000
H     18.6250000000   12.2140000000   27.8130000000
O     18.2940000000   10.0490000000   29.2550000000
C     20.6450000000   21.3080000000   28.8420000000
H     19.8150000000   20.6430000000   29.0940000000
H     21.5670000000   20.7210000000   28.8670000000
H     20.8170000000   22.1400000000   29.5290000000
S     20.4490000000   21.7990000000   27.1140000000
C     21.9310000000   22.8330000000   27.1310000000
H     22.7940000000   22.1810000000   27.2860000000
H     21.9060000000   23.3370000000   26.1620000000
H     21.9960000000   23.6010000000   27.9070000000
O     19.4590000000   22.9210000000   27.1340000000
C     16.2160000000   23.7810000000   27.6310000000
H     16.4000000000   24.3680000000   28.5340000000
H     17.1520000000   23.4000000000   27.2150000000
H     15.6140000000   24.3490000000   26.9160000000
S     15.2610000000   22.3440000000   28.1680000000
C     16.5790000000   21.1950000000   28.6240000000
H     15.9980000000   20.3520000000   29.0070000000
H     17.1040000000   20.9470000000   27.6980000000
H     17.2150000000   21.5830000000   29.4240000000
O     14.6920000000   21.7580000000   26.9130000000
C     23.0770000000   11.8180000000   27.2890000000
H     22.6580000000   10.9840000000   27.8580000000
H     23.0330000000   12.7430000000   27.8700000000
H     22.3210000000   12.0190000000   26.5260000000
S     24.7210000000   11.5350000000   26.5930000000
C     25.4430000000   11.2520000000   28.2250000000
H     25.1610000000   12.1130000000   28.8360000000
H     25.0690000000   10.3620000000   28.7390000000
H     26.5210000000   11.1380000000   28.0870000000
O     25.1960000000   12.8580000000   26.0800000000
C     23.5850000000   17.8360000000   16.8850000000
H     24.1710000000   18.7500000000   16.7530000000
H     24.2130000000   16.9900000000   16.5970000000
H     22.6720000000   17.9250000000   16.2900000000
S     23.1920000000   17.8680000000   18.6490000000
C     22.7780000000   16.1120000000   18.5360000000
H     23.6600000000   15.5170000000   18.2860000000
H     22.3310000000   15.8090000000   19.4860000000
H     22.0910000000   15.9080000000   17.7110000000
O     21.9110000000   18.6420000000   18.6780000000
C     28.4880000000   24.3010000000   23.4660000000
H     29.2910000000   24.9470000000   23.8310000000
H     27.9220000000   24.7910000000   22.6690000000
H     27.7170000000   24.1090000000   24.2160000000
S     29.1750000000   22.7090000000   22.9590000000
C     30.6700000000   23.4650000000   22.2810000000
H     31.0570000000   22.7040000000   21.5980000000
H     30.4590000000   24.3340000000   21.6530000000
H     31.4190000000   23.6940000000   23.0440000000
O     28.4360000000   22.3480000000   21.7080000000
C     24.5290000000   10.1470000000   21.9360000000
H     24.6830000000   11.1030000000   21.4290000000
H     24.4380000000    9.3390000000   21.2060000000
H     23.6680000000   10.1110000000   22.6090000000
S     25.9920000000    9.6700000000   22.8820000000
C     27.2740000000    9.6920000000   21.6080000000
H     27.3180000000   10.6280000000   21.0460000000
H     28.2410000000    9.5710000000   22.1040000000
H     27.0030000000    8.8640000000   20.9480000000
O     25.9410000000    8.2210000000   23.2530000000
