282

C     20.3270000000   19.3930000000   27.7320000000
C     21.5590000000   19.4880000000   28.6470000000
C     22.8520000000   19.9750000000   27.9730000000
C     22.5300000000   21.1740000000   27.0660000000
C     21.4440000000   20.9340000000   26.0040000000
C     20.1470000000   20.5490000000   26.7340000000
H     23.5560000000   20.3310000000   28.7350000000
H     21.2460000000   20.2630000000   29.3560000000
H     20.2800000000   18.3970000000   27.2760000000
H     19.4100000000   19.3330000000   28.3310000000
H     22.1820000000   21.9730000000   27.7320000000
H     23.4470000000   21.5580000000   26.6030000000
H     21.1970000000   21.8280000000   25.4170000000
H     21.8090000000   20.2790000000   25.2030000000
H     19.9630000000   21.3810000000   27.4240000000
H     19.3290000000   20.4680000000   26.0080000000
H     23.4090000000   19.2210000000   27.4030000000
N     21.8100000000   18.2610000000   29.4020000000
H     21.3110000000   17.4210000000   29.1350000000
C     22.1930000000   18.2880000000   30.7270000000
H     21.8960000000   17.3390000000   31.2080000000
O     22.8240000000   19.1940000000   31.2420000000
C     25.8440000000   23.7190000000   27.5160000000
H     26.1970000000   23.1520000000   28.3810000000
H     24.9140000000   23.2830000000   27.1410000000
H     26.6760000000   23.8090000000   26.8130000000
S     25.5900000000   25.4430000000   27.9920000000
C     24.6390000000   26.0860000000   26.5960000000
H     23.5770000000   25.8300000000   26.6160000000
H     24.7010000000   27.1770000000   26.6230000000
H     25.1570000000   25.7430000000   25.6970000000
O     26.9370000000   26.0860000000   27.8710000000
C     16.8310000000   21.9200000000   24.6300000000
H     17.0340000000   21.2690000000   23.7760000000
H     17.2670000000   21.4860000000   25.5330000000
H     15.7710000000   22.0130000000   24.8760000000
S     17.5310000000   23.5430000000   24.2500000000
C     17.4320000000   24.1600000000   25.9460000000
H     18.1450000000   23.5600000000   26.5170000000
H     17.8940000000   25.1500000000   25.9110000000
H     16.4230000000   24.2910000000   26.3460000000
O     16.4780000000   24.2560000000   23.4610000000
C     18.3650000000   18.7030000000   23.2340000000
H     18.9510000000   19.3820000000   23.8590000000
H     18.9890000000   18.0080000000   22.6670000000
H     17.7370000000   19.2290000000   22.5100000000
S     17.1190000000   17.8450000000   24.2220000000
C     18.2150000000   16.6690000000   25.0470000000
H     18.8760000000   17.1950000000   25.7410000000
H     17.5880000000   15.8880000000   25.4860000000
H     18.7580000000   16.2470000000   24.1970000000
O     16.3750000000   16.9840000000   23.2500000000
C     25.6780000000   15.1800000000   30.5590000000
H     25.7070000000   16.0980000000   31.1520000000
H     24.6420000000   14.8330000000   30.5420000000
H     26.2840000000   14.3580000000   30.9470000000
S     26.1280000000   15.5390000000   28.8460000000
C     24.9170000000   16.8720000000   28.6980000000
H     25.0890000000   17.3920000000   27.7530000000
H     23.8690000000   16.5610000000   28.7240000000
H     25.0760000000   17.6060000000   29.4920000000
O     25.6200000000   14.3740000000   28.0540000000
C     22.4860000000   13.5420000000   32.5570000000
H     21.4850000000   13.2350000000   32.8710000000
H     22.7800000000   14.5400000000   32.8930000000
H     22.5150000000   13.5310000000   31.4650000000
S     23.4330000000   12.1450000000   33.2030000000
C     25.0620000000   12.3430000000   32.4460000000
H     25.4590000000   13.3310000000   32.6910000000
H     25.7680000000   11.5660000000   32.7480000000
H     24.9900000000   12.3460000000   31.3550000000
O     22.8830000000   10.9420000000   32.5010000000
C     30.2370000000   18.8110000000   30.0070000000
H     31.1560000000   18.2830000000   30.2740000000
H     30.0580000000   18.7240000000   28.9320000000
H     30.3120000000   19.8650000000   30.2870000000
S     28.8840000000   18.0590000000   30.9380000000
C     29.0290000000   16.5520000000   29.9520000000
H     28.7400000000   16.7230000000   28.9120000000
H     29.9590000000   15.9830000000   30.0340000000
H     28.3250000000   15.8270000000   30.3700000000
O     27.6020000000   18.5650000000   30.3520000000
C     25.0930000000   20.1200000000   37.1350000000
H     25.8840000000   20.3300000000   37.8600000000
H     24.2330000000   19.6190000000   37.5870000000
H     25.4370000000   19.4600000000   36.3340000000
S     24.4750000000   21.5920000000   36.2900000000
C     24.1020000000   22.5260000000   37.7910000000
H     23.3860000000   21.9430000000   38.3750000000
H     24.9930000000   22.6390000000   38.4140000000
H     23.8140000000   23.5350000000   37.4820000000
O     23.1850000000   21.2100000000   35.6320000000
C     20.3400000000   20.9570000000   33.1150000000
H     21.1860000000   20.6340000000   32.5020000000
H     20.3690000000   22.0480000000   33.1820000000
H     20.3450000000   20.5250000000   34.1190000000
S     18.7950000000   20.3360000000   32.4130000000
C     17.9500000000   20.2600000000   34.0090000000
H     18.6250000000   19.6210000000   34.5840000000
H     17.9730000000   21.1790000000   34.5990000000
H     16.8900000000   19.9920000000   34.0100000000
O     18.9130000000   18.8770000000   32.0970000000
C     15.7770000000   19.8210000000   29.3130000000
H     15.4830000000   19.5900000000   28.2860000000
H     16.4240000000   19.0020000000   29.6380000000
H     14.8550000000   19.8290000000   29.8990000000
S     16.7550000000   21.3290000000   29.4940000000
C     15.5770000000   22.5790000000   28.9320000000
H     14.6540000000   22.4050000000   29.4910000000
H     15.9880000000   23.5630000000   29.1690000000
H     15.5120000000   22.5170000000   27.8430000000
O     17.7900000000   21.3320000000   28.4120000000
C     21.1590000000   13.4400000000   26.4230000000
H     21.7060000000   13.3340000000   27.3630000000
H     20.5370000000   14.3290000000   26.5590000000
H     20.5550000000   12.5530000000   26.2140000000
S     22.1440000000   13.7070000000   24.9310000000
C     22.7960000000   15.2920000000   25.5050000000
H     23.3130000000   15.7260000000   24.6460000000
H     21.9780000000   15.9190000000   25.8700000000
H     23.4890000000   15.0040000000   26.2990000000
O     21.1000000000   13.9950000000   23.8970000000
C     25.4010000000   21.0990000000   31.2950000000
H     24.5990000000   20.5420000000   30.8040000000
H     25.7060000000   21.9200000000   30.6430000000
H     26.1990000000   20.3940000000   31.5430000000
S     24.7590000000   21.7540000000   32.8520000000
C     23.4850000000   22.8410000000   32.1740000000
H     23.0910000000   22.5290000000   31.2030000000
H     22.7070000000   22.8500000000   32.9420000000
H     23.9040000000   23.8500000000   32.1530000000
O     25.8560000000   22.7150000000   33.1890000000
C     14.9120000000   16.4460000000   26.2360000000
H     14.9260000000   17.5290000000   26.3810000000
H     15.7150000000   15.9180000000   26.7580000000
H     14.9640000000   16.3370000000   25.1500000000
S     13.3310000000   15.9850000000   26.9790000000
C     13.7470000000   16.5200000000   28.6530000000
H     13.1260000000   15.9860000000   29.3770000000
H     14.8100000000   16.3300000000   28.8230000000
H     13.4790000000   17.5780000000   28.7100000000
O     13.3690000000   14.4930000000   27.1020000000
C     14.0700000000   22.3620000000   21.2270000000
H     13.5770000000   21.8760000000   20.3810000000
H     13.6520000000   21.9270000000   22.1390000000
H     13.9000000000   23.4410000000   21.2420000000
S     15.8460000000   22.0280000000   21.2360000000
C     16.1950000000   22.8190000000   19.6500000000
H     17.2240000000   22.6260000000   19.3380000000
H     15.5380000000   22.4280000000   18.8680000000
H     16.0720000000   23.8980000000   19.7760000000
O     15.8250000000   20.5740000000   20.8810000000
C     20.2160000000   23.3390000000   30.3420000000
H     20.2320000000   22.4920000000   29.6510000000
H     20.7820000000   23.2520000000   31.2730000000
H     19.1760000000   23.6620000000   30.4440000000
S     21.0990000000   24.7170000000   29.5770000000
C     20.3850000000   24.4680000000   27.9360000000
H     20.8150000000   25.2500000000   27.3050000000
H     20.7550000000   23.5590000000   27.4540000000
H     19.3080000000   24.6550000000   27.9420000000
O     22.4870000000   24.2060000000   29.3430000000
C     17.1770000000   13.5000000000   34.5110000000
H     16.4380000000   14.0090000000   33.8860000000
H     17.6910000000   12.8330000000   33.8150000000
H     16.7510000000   12.9570000000   35.3590000000
S     18.2380000000   14.8320000000   35.1160000000
C     18.3590000000   15.7920000000   33.5890000000
H     18.4000000000   16.8630000000   33.8030000000
H     19.3130000000   15.4420000000   33.1850000000
H     17.5210000000   15.5160000000   32.9440000000
O     19.5600000000   14.1350000000   35.1900000000
C     22.9500000000   17.4820000000   34.3970000000
H     22.7460000000   17.1220000000   33.3850000000
H     22.3260000000   16.9240000000   35.1000000000
H     22.8610000000   18.5680000000   34.4740000000
S     24.6560000000   17.0000000000   34.7460000000
C     25.3110000000   18.0850000000   33.4590000000
H     24.8570000000   17.7040000000   32.5400000000
H     24.9480000000   19.1080000000   33.5900000000
H     26.3930000000   17.9430000000   33.4010000000
O     24.6620000000   15.6140000000   34.1800000000
C     22.8570000000   22.9720000000   23.5970000000
H     22.9560000000   23.5260000000   24.5340000000
H     23.1470000000   21.9400000000   23.8120000000
H     23.4980000000   23.4420000000   22.8470000000
S     21.1550000000   23.1380000000   23.0120000000
C     21.1850000000   21.5250000000   22.1990000000
H     20.1390000000   21.3770000000   21.9190000000
H     21.8580000000   21.6930000000   21.3540000000
H     21.5040000000   20.7320000000   22.8810000000
O     21.3310000000   24.1560000000   21.9290000000
C     21.3480000000   19.3070000000   37.5290000000
H     21.5730000000   19.5350000000   36.4840000000
H     20.2810000000   19.4700000000   37.7030000000
H     21.9490000000   19.9070000000   38.2170000000
S     21.7210000000   17.5680000000   37.8470000000
C     20.2430000000   16.8180000000   37.1260000000
H     19.3100000000   17.0680000000   37.6370000000
H     20.0490000000   17.2200000000   36.1280000000
H     20.2880000000   15.7260000000   37.1300000000
O     21.7320000000   17.4960000000   39.3420000000
C     28.2700000000   25.5360000000   24.3140000000
H     27.5020000000   26.2610000000   24.0320000000
H     28.2230000000   25.3970000000   25.3970000000
H     29.2630000000   25.9250000000   24.0740000000
S     27.7020000000   23.9990000000   23.5530000000
C     27.7930000000   24.6350000000   21.8640000000
H     26.8600000000   25.1270000000   21.5800000000
H     28.6230000000   25.3390000000   21.7620000000
H     27.9710000000   23.8630000000   21.1110000000
O     26.2530000000   23.9520000000   23.9240000000
C     24.7520000000   19.6420000000   21.8800000000
H     23.8670000000   20.1770000000   21.5260000000
H     25.3630000000   20.2680000000   22.5360000000
H     25.4010000000   19.2840000000   21.0760000000
S     24.1520000000   18.1540000000   22.7110000000
C     22.8810000000   17.7800000000   21.4830000000
H     23.3960000000   17.6540000000   20.5270000000
H     22.2330000000   16.9190000000   21.6700000000
H     22.1840000000   18.6200000000   21.5420000000
O     23.4240000000   18.7460000000   23.8770000000
C     19.8760000000   27.5180000000   23.3850000000
H     19.8230000000   26.4330000000   23.2630000000
H     19.3520000000   27.9630000000   22.5360000000
H     20.9560000000   27.5340000000   23.2190000000
S     19.2040000000   28.0500000000   24.9760000000
C     19.3550000000   29.8410000000   24.7900000000
H     19.9790000000   30.2680000000   25.5800000000
H     19.7850000000   30.0230000000   23.8020000000
H     18.3770000000   30.3270000000   24.7580000000
O     20.2690000000   27.6550000000   25.9510000000
C     25.9780000000   20.6530000000   25.0680000000
H     26.7530000000   20.9830000000   24.3720000000
H     24.9630000000   20.4130000000   24.7390000000
H     26.0630000000   21.3710000000   25.8870000000
S     26.4630000000   19.1060000000   25.8660000000
C     27.4170000000   19.7980000000   27.2350000000
H     28.3530000000   20.1660000000   26.8070000000
H     26.8060000000   20.4610000000   27.8530000000
H     27.6910000000   19.0260000000   27.9600000000
O     27.5570000000   18.5690000000   24.9960000000
C     25.6230000000   13.0820000000   24.8530000000
H     24.8910000000   13.5890000000   25.4870000000
H     25.0430000000   12.3060000000   24.3470000000
H     26.4430000000   12.6720000000   25.4460000000
S     26.1020000000   14.2060000000   23.5210000000
C     26.5840000000   15.5650000000   24.6090000000
H     26.0820000000   15.4060000000   25.5670000000
H     27.6550000000   15.7350000000   24.7460000000
H     26.2540000000   16.4730000000   24.0980000000
O     24.7950000000   14.5900000000   22.8990000000
C     17.8370000000   11.5960000000   25.7860000000
H     17.4610000000   10.9330000000   25.0020000000
H     18.6650000000   12.1860000000   25.3850000000
H     18.0760000000   11.0770000000   26.7180000000
S     16.5520000000   12.7730000000   26.2610000000
C     16.5310000000   13.3210000000   24.5390000000
H     17.5160000000   13.6780000000   24.2280000000
H     16.3030000000   12.4990000000   23.8550000000
H     15.8350000000   14.1610000000   24.4730000000
O     17.2760000000   13.8990000000   26.9320000000
C     18.8940000000   16.4030000000   30.4190000000
H     19.5630000000   16.2200000000   31.2630000000
H     18.9460000000   17.4380000000   30.0710000000
H     17.8800000000   16.0680000000   30.6540000000
S     19.4740000000   15.4380000000   29.0060000000
C     19.3820000000   13.7540000000   29.6550000000
H     20.1380000000   13.2050000000   29.0870000000
H     19.6830000000   13.8130000000   30.7050000000
H     18.3430000000   13.4260000000   29.5700000000
O     20.9570000000   15.6180000000   29.1050000000
C     11.8980000000   19.5340000000   25.9880000000
H     10.8740000000   19.5230000000   26.3700000000
H     11.8590000000   19.7190000000   24.9110000000
H     12.4430000000   18.5900000000   26.0680000000
S     13.0050000000   20.6750000000   26.8460000000
C     12.3510000000   22.1760000000   26.0820000000
H     13.1170000000   22.9540000000   26.0330000000
H     12.0050000000   21.9660000000   25.0660000000
H     11.5000000000   22.5160000000   26.6780000000
O     14.2950000000   20.6850000000   26.0870000000
