262

C     26.2290000000   24.2580000000   26.2140000000
C     26.2830000000   25.7460000000   26.6000000000
C     24.9220000000   26.4310000000   26.8030000000
C     23.9390000000   25.6180000000   27.6610000000
C     23.8460000000   24.1230000000   27.3140000000
C     25.2320000000   23.4920000000   27.0990000000
H     25.1120000000   27.4220000000   27.2330000000
H     26.6990000000   25.7590000000   27.6150000000
H     25.7980000000   24.1220000000   25.2150000000
H     27.2280000000   23.8060000000   26.2490000000
H     24.3290000000   25.6510000000   28.6860000000
H     22.9300000000   26.0340000000   27.5520000000
H     23.1820000000   23.6590000000   28.0530000000
H     23.3240000000   24.0700000000   26.3500000000
H     25.6400000000   23.3870000000   28.1120000000
H     25.2390000000   22.4730000000   26.6950000000
H     24.4140000000   26.6880000000   25.8640000000
N     27.1220000000   26.4170000000   25.6090000000
H     27.0270000000   26.2810000000   24.6100000000
C     28.0100000000   27.4270000000   25.9140000000
H     28.5640000000   27.7620000000   25.0180000000
O     28.2220000000   27.7720000000   27.0630000000
C     24.0430000000   28.8350000000   23.7380000000
H     24.7140000000   29.6930000000   23.8240000000
H     23.5060000000   28.5960000000   24.6590000000
H     24.6330000000   27.9390000000   23.5270000000
S     22.9120000000   29.0900000000   22.3510000000
C     21.9160000000   30.4140000000   23.0720000000
H     22.5770000000   31.0840000000   23.6270000000
H     21.4380000000   31.1190000000   22.3870000000
H     21.1050000000   30.0210000000   23.6910000000
O     21.9330000000   27.9740000000   22.5420000000
C     22.4290000000   27.9320000000   31.0540000000
H     21.6650000000   28.2790000000   30.3540000000
H     22.6630000000   28.7710000000   31.7140000000
H     23.2530000000   27.5900000000   30.4220000000
S     21.8390000000   26.5870000000   32.1080000000
C     21.5740000000   25.6090000000   30.6120000000
H     20.6830000000   25.8440000000   30.0250000000
H     22.4920000000   25.4510000000   30.0390000000
H     21.3420000000   24.6300000000   31.0390000000
O     20.4360000000   26.9600000000   32.4740000000
C     25.7310000000   30.1020000000   31.3450000000
H     25.5580000000   29.3870000000   30.5370000000
H     24.8680000000   30.7550000000   31.4970000000
H     26.6220000000   30.7200000000   31.2070000000
S     25.9100000000   29.0760000000   32.8220000000
C     27.5370000000   28.4060000000   32.4110000000
H     27.7440000000   27.6340000000   33.1570000000
H     27.3950000000   27.8460000000   31.4830000000
H     28.2940000000   29.1930000000   32.4550000000
O     24.9940000000   27.9620000000   32.4180000000
C     30.3110000000   29.0620000000   29.4240000000
H     30.1070000000   28.0300000000   29.1310000000
H     30.0460000000   29.1110000000   30.4830000000
H     29.6830000000   29.8100000000   28.9340000000
S     32.0350000000   29.5140000000   29.1240000000
C     32.5760000000   28.1630000000   30.1950000000
H     32.5650000000   27.1860000000   29.7050000000
H     33.6060000000   28.2840000000   30.5420000000
H     31.8260000000   28.1310000000   30.9890000000
O     32.2450000000   30.7100000000   30.0010000000
C     27.7080000000   21.6740000000   28.8350000000
H     27.3100000000   21.0030000000   28.0700000000
H     27.0530000000   21.6230000000   29.7080000000
H     27.7020000000   22.6850000000   28.4200000000
S     29.3400000000   21.2630000000   29.4940000000
C     29.9230000000   20.4780000000   27.9740000000
H     29.5060000000   19.4720000000   27.8820000000
H     29.6680000000   21.1840000000   27.1800000000
H     31.0110000000   20.3840000000   28.0310000000
O     28.9880000000   20.0400000000   30.2830000000
C     28.4130000000   35.2160000000   27.8960000000
H     27.4110000000   35.6510000000   27.9250000000
H     29.0920000000   36.0650000000   27.7880000000
H     28.4950000000   34.6170000000   26.9850000000
S     28.8470000000   34.1650000000   29.3000000000
C     30.5610000000   33.8200000000   28.8460000000
H     30.9220000000   33.0260000000   29.5050000000
H     30.5770000000   33.5150000000   27.7970000000
H     31.0550000000   34.7610000000   29.1020000000
O     28.0810000000   32.8870000000   29.1530000000
C     25.0810000000   23.7340000000   32.0510000000
H     24.2900000000   24.2280000000   31.4820000000
H     25.5760000000   23.0690000000   31.3380000000
H     24.6640000000   23.1740000000   32.8920000000
S     26.3210000000   24.7740000000   32.8550000000
C     27.4790000000   24.5530000000   31.4860000000
H     27.2950000000   25.2370000000   30.6530000000
H     28.4550000000   24.7410000000   31.9410000000
H     27.6030000000   23.5240000000   31.1370000000
O     26.7890000000   23.8930000000   33.9710000000
C     19.7150000000   22.1400000000   28.1330000000
H     20.6930000000   22.4080000000   28.5390000000
H     18.9730000000   22.4530000000   28.8720000000
H     19.5950000000   21.0840000000   27.8790000000
S     19.5410000000   23.0870000000   26.6040000000
C     20.9880000000   22.2730000000   25.8900000000
H     21.0480000000   22.7370000000   24.9020000000
H     21.8590000000   22.4800000000   26.5160000000
H     20.8440000000   21.1910000000   25.9380000000
O     20.1120000000   24.4210000000   26.9710000000
C     30.9890000000   27.1410000000   22.7140000000
H     30.2650000000   26.5330000000   23.2630000000
H     30.6040000000   28.1230000000   22.4270000000
H     31.3280000000   26.7130000000   21.7670000000
S     32.5280000000   27.1330000000   23.6610000000
C     33.3700000000   28.5360000000   22.8940000000
H     32.8080000000   29.3730000000   23.3170000000
H     34.4510000000   28.5920000000   23.0490000000
H     33.1990000000   28.5580000000   21.8150000000
O     33.1680000000   25.8820000000   23.1450000000
C     18.5730000000   26.9350000000   22.3080000000
H     19.4070000000   26.5150000000   21.7400000000
H     17.8460000000   26.1270000000   22.4250000000
H     18.1320000000   27.7890000000   21.7880000000
S     19.1000000000   27.5460000000   23.9240000000
C     19.6430000000   25.9370000000   24.5410000000
H     20.4800000000   25.6280000000   23.9090000000
H     20.0540000000   26.1890000000   25.5210000000
H     18.7840000000   25.2720000000   24.6660000000
O     17.8150000000   27.6710000000   24.6820000000
C     17.6590000000   25.1940000000   29.7320000000
H     18.4290000000   25.4600000000   29.0020000000
H     17.6400000000   26.0850000000   30.3650000000
H     17.9190000000   24.3900000000   30.4250000000
S     16.2130000000   24.9190000000   28.6840000000
C     15.6310000000   26.6200000000   28.4980000000
H     16.5200000000   27.0220000000   28.0040000000
H     14.7080000000   26.6670000000   27.9150000000
H     15.4730000000   26.9960000000   29.5120000000
O     15.1440000000   24.2730000000   29.5100000000
C     19.2070000000   17.3340000000   30.0220000000
H     18.4610000000   18.0300000000   30.4120000000
H     18.9830000000   16.2760000000   30.1770000000
H     20.1690000000   17.6780000000   30.4110000000
S     19.5820000000   17.6680000000   28.2860000000
C     20.9350000000   16.4710000000   28.2530000000
H     20.4440000000   15.5160000000   28.4570000000
H     21.3410000000   16.3460000000   27.2460000000
H     21.7500000000   16.5690000000   28.9740000000
O     20.2860000000   18.9780000000   28.4560000000
C     29.0480000000   30.8820000000   26.3980000000
H     28.3750000000   31.0840000000   25.5610000000
H     28.6850000000   30.0370000000   26.9900000000
H     29.2360000000   31.7580000000   27.0240000000
S     30.5720000000   30.3690000000   25.5740000000
C     30.7940000000   31.9260000000   24.6840000000
H     29.8620000000   32.2020000000   24.1850000000
H     31.0030000000   32.6600000000   25.4670000000
H     31.6210000000   31.8080000000   23.9790000000
O     30.2770000000   29.4150000000   24.4590000000
C     17.9060000000   21.4840000000   31.2320000000
H     17.4200000000   21.0760000000   32.1220000000
H     17.5580000000   22.5140000000   31.1250000000
H     17.5130000000   20.8360000000   30.4450000000
S     19.7100000000   21.4440000000   31.3380000000
C     19.8550000000   20.1320000000   32.5720000000
H     19.6280000000   20.5350000000   33.5630000000
H     19.0800000000   19.3830000000   32.3900000000
H     20.8750000000   19.7500000000   32.6670000000
O     19.8040000000   22.7330000000   32.0940000000
C     28.1180000000   27.8430000000   19.6270000000
H     28.6570000000   28.6560000000   19.1360000000
H     28.8590000000   27.2460000000   20.1650000000
H     27.5700000000   27.2530000000   18.8880000000
S     27.0440000000   28.4840000000   20.9310000000
C     28.2230000000   29.7540000000   21.4440000000
H     29.2300000000   29.3820000000   21.2390000000
H     27.9930000000   30.6920000000   20.9320000000
H     28.1170000000   29.9640000000   22.5120000000
O     27.1320000000   27.3920000000   21.9510000000
C     24.6330000000   33.6810000000   27.1300000000
H     25.7070000000   33.6710000000   26.9300000000
H     24.1060000000   34.3850000000   26.4820000000
H     24.4430000000   33.9210000000   28.1800000000
S     23.9710000000   32.0100000000   26.9460000000
C     25.1590000000   31.0840000000   27.9450000000
H     25.5340000000   31.6510000000   28.8010000000
H     24.7090000000   30.1910000000   28.3860000000
H     26.0040000000   30.7550000000   27.3350000000
O     24.2750000000   31.6630000000   25.5210000000
C     20.0940000000   22.9460000000   21.0670000000
H     21.1500000000   22.8740000000   21.3390000000
H     19.6960000000   22.1480000000   20.4340000000
H     19.9720000000   23.9150000000   20.5760000000
S     19.0020000000   23.0870000000   22.4990000000
C     19.0990000000   21.3220000000   22.8730000000
H     20.1050000000   20.9620000000   23.1040000000
H     18.4190000000   21.0890000000   23.6970000000
H     18.8190000000   20.7970000000   21.9570000000
O     17.6070000000   23.2950000000   21.9970000000
C     19.4500000000   30.0500000000   27.0530000000
H     18.8250000000   29.3940000000   26.4420000000
H     18.9900000000   30.2060000000   28.0330000000
H     19.6850000000   31.0400000000   26.6560000000
S     20.9960000000   29.1520000000   27.3140000000
C     20.1440000000   27.8280000000   28.1990000000
H     19.6620000000   27.0590000000   27.5900000000
H     20.9500000000   27.1980000000   28.5840000000
H     19.5160000000   28.1790000000   29.0220000000
O     21.6310000000   30.0340000000   28.3440000000
C     23.3220000000   18.9550000000   22.2230000000
H     22.3360000000   19.3130000000   21.9150000000
H     23.8770000000   18.4770000000   21.4110000000
H     23.0530000000   18.3060000000   23.0600000000
S     24.2500000000   20.3520000000   22.8940000000
C     25.1720000000   19.4180000000   24.1350000000
H     24.4250000000   19.1490000000   24.8870000000
H     25.7000000000   18.5320000000   23.7730000000
H     25.9430000000   20.0920000000   24.5180000000
O     23.1450000000   21.2040000000   23.4350000000
C     23.6370000000   19.4800000000   27.8890000000
H     24.5010000000   19.8140000000   27.3090000000
H     23.7310000000   18.3910000000   27.8960000000
H     22.6420000000   19.8410000000   27.6160000000
S     24.1240000000   19.9770000000   29.5560000000
C     22.5470000000   19.6940000000   30.3910000000
H     22.1000000000   18.6980000000   30.4470000000
H     22.5120000000   20.2120000000   31.3530000000
H     21.8400000000   20.1240000000   29.6770000000
O     24.2900000000   21.4490000000   29.3390000000
C     25.1650000000   23.9770000000   21.8400000000
H     26.0260000000   23.9360000000   21.1670000000
H     25.4740000000   24.1130000000   22.8800000000
H     24.5580000000   23.0940000000   21.6260000000
S     24.2100000000   25.4470000000   21.4030000000
C     23.2910000000   25.2320000000   22.9450000000
H     22.4090000000   25.8690000000   22.8410000000
H     22.9320000000   24.2010000000   23.0020000000
H     23.8850000000   25.6110000000   23.7800000000
O     23.2860000000   24.9670000000   20.3280000000
C     28.0340000000   21.5480000000   23.9430000000
H     27.8880000000   22.0130000000   24.9210000000
H     27.2940000000   21.9000000000   23.2190000000
H     28.2360000000   20.4790000000   24.0510000000
S     29.5530000000   22.3090000000   23.3290000000
C     29.0310000000   24.0370000000   23.2570000000
H     29.6440000000   24.5660000000   23.9920000000
H     29.0270000000   24.5300000000   22.2820000000
H     28.0120000000   24.0590000000   23.6510000000
O     29.4700000000   21.8730000000   21.8990000000
C     27.6560000000   15.3700000000   29.2750000000
H     27.0920000000   14.6590000000   29.8830000000
H     28.4370000000   14.8260000000   28.7380000000
H     28.0300000000   16.0550000000   30.0400000000
S     26.5690000000   16.0970000000   28.0280000000
C     27.7430000000   17.2320000000   27.2540000000
H     28.7420000000   16.8010000000   27.1510000000
H     27.2630000000   17.4980000000   26.3090000000
H     27.7460000000   18.0590000000   27.9680000000
O     25.6700000000   17.0920000000   28.6930000000
C     29.7380000000   25.0290000000   28.5310000000
H     30.2720000000   25.8510000000   29.0150000000
H     28.9730000000   25.5820000000   27.9800000000
H     29.1430000000   24.4880000000   29.2710000000
S     30.6370000000   23.9630000000   27.3810000000
C     31.2320000000   25.4900000000   26.6200000000
H     31.8150000000   25.0730000000   25.7950000000
H     30.4430000000   26.1340000000   26.2240000000
H     31.9290000000   25.9420000000   27.3310000000
O     29.5950000000   23.4340000000   26.4450000000
