242

C     23.7690000000   14.8770000000   28.7840000000
C     23.5480000000   15.9400000000   27.6960000000
C     22.6240000000   17.0790000000   28.1570000000
C     22.8720000000   17.6120000000   29.5780000000
C     22.7990000000   16.3650000000   30.4730000000
C     23.9650000000   15.3950000000   30.2180000000
H     22.7280000000   17.8430000000   27.3770000000
H     24.4990000000   16.4700000000   27.5630000000
H     22.8840000000   14.2290000000   28.7780000000
H     24.5820000000   14.2040000000   28.4840000000
H     23.8240000000   18.1270000000   29.7560000000
H     22.0790000000   18.3030000000   29.8890000000
H     22.7460000000   16.5710000000   31.5490000000
H     21.8550000000   15.8330000000   30.3020000000
H     24.9070000000   15.9300000000   30.3880000000
H     23.9850000000   14.5970000000   30.9700000000
H     21.6310000000   16.6230000000   28.0600000000
N     23.0860000000   15.4880000000   26.3850000000
H     22.2060000000   15.6960000000   25.9280000000
C     23.8210000000   14.6130000000   25.6130000000
H     23.3280000000   14.2880000000   24.6790000000
O     24.9480000000   14.2230000000   25.8620000000
C     21.3740000000   21.6310000000   29.0650000000
H     20.9620000000   21.9290000000   28.0980000000
H     22.2960000000   21.0520000000   28.9640000000
H     20.6520000000   21.0120000000   29.6030000000
S     21.7960000000   23.0430000000   30.1100000000
C     23.2270000000   23.6230000000   29.1700000000
H     23.9450000000   22.8340000000   28.9340000000
H     22.7320000000   23.8890000000   28.2320000000
H     23.5480000000   24.4860000000   29.7600000000
O     22.2740000000   22.4700000000   31.4080000000
C     18.3150000000   20.8180000000   24.3760000000
H     17.9700000000   20.1590000000   23.5750000000
H     17.6370000000   20.6380000000   25.2140000000
H     18.3470000000   21.8760000000   24.1030000000
S     20.0250000000   20.4120000000   24.7970000000
C     19.7870000000   18.6880000000   25.2850000000
H     20.7150000000   18.4660000000   25.8180000000
H     18.8860000000   18.7100000000   25.9040000000
H     19.6480000000   18.0910000000   24.3800000000
O     20.2090000000   21.1830000000   26.0670000000
C     29.5130000000   14.0550000000   32.4820000000
H     29.4960000000   13.2650000000   33.2370000000
H     30.2950000000   13.9690000000   31.7220000000
H     29.7320000000   15.0070000000   32.9720000000
S     27.9040000000   14.1580000000   31.6660000000
C     28.3390000000   15.3210000000   30.3540000000
H     28.2920000000   16.3580000000   30.6980000000
H     29.3320000000   15.0920000000   29.9590000000
H     27.6090000000   15.1650000000   29.5560000000
O     27.0710000000   15.0720000000   32.5090000000
C     25.4740000000   20.6820000000   28.0100000000
H     25.5140000000   21.6870000000   27.5830000000
H     24.7430000000   20.0280000000   27.5280000000
H     25.1510000000   20.6610000000   29.0540000000
S     27.0810000000   19.8600000000   27.9260000000
C     26.6010000000   18.2820000000   28.6650000000
H     26.0530000000   18.6040000000   29.5540000000
H     25.9840000000   17.6980000000   27.9780000000
H     27.5160000000   17.7130000000   28.8470000000
O     27.7590000000   20.3990000000   29.1470000000
C     19.8380000000   20.9900000000   33.2170000000
H     18.9530000000   21.3460000000   33.7510000000
H     20.6030000000   21.7510000000   33.3950000000
H     19.6420000000   20.8900000000   32.1470000000
S     20.2440000000   19.4410000000   34.0540000000
C     21.4560000000   18.8450000000   32.8530000000
H     21.5060000000   17.7780000000   33.0880000000
H     20.9130000000   18.9860000000   31.9150000000
H     22.4040000000   19.3240000000   33.1110000000
O     19.0250000000   18.6760000000   33.6420000000
C     17.2250000000   20.5340000000   28.0200000000
H     17.5200000000   21.0610000000   28.9310000000
H     18.0380000000   20.5220000000   27.2890000000
H     16.3730000000   21.0460000000   27.5660000000
S     16.6350000000   18.8560000000   28.3400000000
C     18.1840000000   18.3730000000   29.1340000000
H     18.0900000000   17.3000000000   29.3230000000
H     19.0630000000   18.3250000000   28.4860000000
H     18.2470000000   18.8920000000   30.0940000000
O     16.7020000000   18.0220000000   27.0990000000
C     25.6780000000   23.8710000000   33.3740000000
H     25.9160000000   24.5800000000   32.5770000000
H     24.6230000000   23.5980000000   33.2940000000
H     25.8520000000   24.3050000000   34.3620000000
S     26.6420000000   22.3800000000   33.0390000000
C     25.7230000000   22.0840000000   31.5110000000
H     26.2540000000   21.2680000000   31.0140000000
H     24.7040000000   21.7220000000   31.6690000000
H     25.7380000000   23.0130000000   30.9350000000
O     26.0530000000   21.4580000000   34.0600000000
C     27.4720000000   11.8180000000   24.2910000000
H     28.5590000000   11.8780000000   24.3900000000
H     27.0140000000   12.5980000000   24.9050000000
H     27.3520000000   10.7790000000   24.6070000000
S     26.9100000000   11.9270000000   22.5770000000
C     27.7710000000   10.4270000000   22.0520000000
H     27.2960000000    9.5540000000   22.5070000000
H     27.7010000000   10.2670000000   20.9730000000
H     28.8020000000   10.4720000000   22.4150000000
O     27.5680000000   13.1860000000   22.1030000000
C     25.0980000000   10.9250000000   28.0600000000
H     24.6280000000    9.9530000000   28.2270000000
H     24.3640000000   11.6880000000   28.3320000000
H     25.4230000000   10.9160000000   27.0160000000
S     26.5440000000   11.3420000000   29.0610000000
C     25.7150000000   11.7330000000   30.6180000000
H     26.3790000000   11.8810000000   31.4730000000
H     25.1820000000   12.6630000000   30.4050000000
H     24.9780000000   10.9340000000   30.7330000000
O     26.9490000000   12.7390000000   28.7060000000
C     23.8820000000   12.6240000000   33.8460000000
H     22.8900000000   13.0760000000   33.9320000000
H     24.1700000000   12.5570000000   32.7940000000
H     23.9140000000   11.6770000000   34.3920000000
S     24.9280000000   13.6260000000   34.9250000000
C     26.2990000000   12.4490000000   34.8970000000
H     27.2100000000   12.9220000000   35.2710000000
H     26.0140000000   11.6890000000   35.6280000000
H     26.4650000000   12.0230000000   33.9040000000
O     24.2270000000   13.3930000000   36.2270000000
C     29.7300000000   19.7900000000   32.2510000000
H     30.8130000000   19.8690000000   32.3770000000
H     29.5130000000   20.0960000000   31.2250000000
H     29.1670000000   20.3690000000   32.9890000000
S     29.2760000000   18.0680000000   32.5560000000
C     27.5280000000   18.4730000000   32.7700000000
H     27.4650000000   19.1790000000   33.6020000000
H     27.2120000000   18.9630000000   31.8450000000
H     26.9740000000   17.5520000000   32.9680000000
O     29.7790000000   17.8690000000   33.9520000000
C     20.0780000000   15.3430000000   33.2300000000
H     20.2070000000   14.5040000000   33.9180000000
H     21.0630000000   15.4480000000   32.7670000000
H     19.7190000000   16.1690000000   33.8500000000
S     18.8870000000   14.8800000000   31.9530000000
C     19.8020000000   13.3530000000   31.6410000000
H     19.6430000000   12.6140000000   32.4310000000
H     19.3810000000   13.0500000000   30.6790000000
H     20.8780000000   13.4220000000   31.4670000000
O     19.1410000000   15.8350000000   30.8290000000
C     23.1940000000   15.2610000000   18.5630000000
H     22.8750000000   14.2890000000   18.1810000000
H     22.3350000000   15.7180000000   19.0610000000
H     23.5490000000   15.8930000000   17.7450000000
S     24.4570000000   15.0320000000   19.8350000000
C     23.9720000000   13.6120000000   20.8410000000
H     22.9870000000   13.8640000000   21.2430000000
H     23.9830000000   12.7390000000   20.1830000000
H     24.8040000000   13.5930000000   21.5490000000
O     24.2970000000   16.2750000000   20.6540000000
C     19.9390000000   10.9830000000   19.8750000000
H     19.8690000000   10.8710000000   18.7900000000
H     19.5560000000   10.0700000000   20.3380000000
H     19.2510000000   11.8040000000   20.0900000000
S     21.5770000000   11.3630000000   20.5370000000
C     22.3200000000    9.7520000000   20.1930000000
H     22.4390000000    9.5000000000   19.1360000000
H     23.3480000000    9.7340000000   20.5620000000
H     21.7370000000    9.0220000000   20.7600000000
O     21.3280000000   11.1880000000   22.0020000000
C     19.9420000000   14.0790000000   27.9970000000
H     19.5210000000   14.7680000000   28.7330000000
H     19.9610000000   13.1020000000   28.4870000000
H     20.9250000000   14.4760000000   27.7310000000
S     18.9110000000   13.9550000000   26.5180000000
C     17.7200000000   15.2580000000   26.9070000000
H     17.2480000000   15.0000000000   27.8580000000
H     18.2160000000   16.2280000000   26.9910000000
H     17.0250000000   15.2780000000   26.0650000000
O     18.0720000000   12.7580000000   26.8410000000
C     24.1690000000   16.9950000000   37.3960000000
H     24.0440000000   17.7750000000   38.1510000000
H     23.4520000000   16.1890000000   37.5740000000
H     25.1250000000   16.4770000000   37.5050000000
S     23.8780000000   17.4930000000   35.6830000000
C     25.2070000000   18.6960000000   35.4550000000
H     25.2140000000   19.3550000000   36.3270000000
H     26.0840000000   18.0440000000   35.4250000000
H     25.1250000000   19.2470000000   34.5150000000
O     22.6050000000   18.2790000000   35.6620000000
C     24.7300000000   19.0880000000   22.7580000000
H     25.3410000000   19.9730000000   22.5660000000
H     25.3530000000   18.1940000000   22.6730000000
H     24.0130000000   18.9270000000   21.9490000000
S     23.7970000000   19.0410000000   24.3050000000
C     23.5030000000   20.8150000000   24.4860000000
H     24.3060000000   21.3960000000   24.9460000000
H     23.0700000000   21.2150000000   23.5660000000
H     22.6530000000   20.8600000000   25.1730000000
O     24.8260000000   18.7800000000   25.3610000000
C     28.1900000000   17.0950000000   23.7230000000
H     28.7240000000   17.9000000000   24.2350000000
H     28.2940000000   17.1410000000   22.6360000000
H     27.1340000000   17.3150000000   23.8980000000
S     28.6250000000   15.4650000000   24.3690000000
C     28.0510000000   15.6670000000   26.0710000000
H     26.9770000000   15.8060000000   25.9230000000
H     28.2030000000   14.6970000000   26.5520000000
H     28.4460000000   16.5430000000   26.5910000000
O     30.1090000000   15.5820000000   24.5280000000
C     21.7220000000   10.3540000000   31.7370000000
H     22.5330000000   11.0560000000   31.9430000000
H     20.9060000000   10.3950000000   32.4640000000
H     22.0980000000    9.3310000000   31.6610000000
S     21.1520000000   10.9180000000   30.1180000000
C     19.9250000000    9.6520000000   29.7200000000
H     19.0720000000    9.7390000000   30.3970000000
H     19.5940000000    9.7990000000   28.6880000000
H     20.4610000000    8.7010000000   29.7870000000
O     22.3330000000   10.6920000000   29.2260000000
C     23.3650000000   10.3900000000   24.6930000000
H     23.6280000000   11.4130000000   24.4150000000
H     23.7860000000   10.2500000000   25.6920000000
H     23.7300000000    9.6580000000   23.9680000000
S     21.5650000000   10.2590000000   24.7880000000
C     21.4000000000   11.4030000000   26.1770000000
H     20.4520000000   11.2980000000   26.7120000000
H     22.2530000000   11.2410000000   26.8400000000
H     21.4440000000   12.3950000000   25.7190000000
O     21.3070000000    8.9160000000   25.3970000000
C     31.0490000000   13.5680000000   26.7640000000
H     29.9790000000   13.5250000000   26.5450000000
H     31.2040000000   14.3350000000   27.5270000000
H     31.5520000000   13.9140000000   25.8580000000
S     31.4880000000   11.9590000000   27.4600000000
C     30.0620000000   11.8510000000   28.5650000000
H     30.2960000000   11.0130000000   29.2260000000
H     29.9450000000   12.8180000000   29.0610000000
H     29.2040000000   11.5960000000   27.9380000000
O     32.5340000000   12.2240000000   28.4970000000
C     21.9630000000   16.6800000000   22.5010000000
H     21.9780000000   16.8180000000   21.4170000000
H     21.4780000000   17.5450000000   22.9610000000
H     22.9280000000   16.5140000000   22.9870000000
S     21.0710000000   15.2620000000   23.1790000000
C     19.3920000000   15.6530000000   22.6380000000
H     18.6940000000   15.1190000000   23.2870000000
H     19.2350000000   16.7170000000   22.8320000000
H     19.3420000000   15.3660000000   21.5840000000
O     20.9870000000   15.5650000000   24.6420000000
