282

C     23.8140000000   17.5960000000   26.4710000000
C     22.7100000000   18.6580000000   26.6040000000
C     23.1520000000   19.9760000000   27.2600000000
C     24.3410000000   20.5910000000   26.5040000000
C     25.4430000000   19.5550000000   26.2290000000
C     25.0000000000   18.1850000000   25.6900000000
H     22.2540000000   20.6060000000   27.2570000000
H     22.4240000000   18.8400000000   25.5610000000
H     24.1300000000   17.4020000000   27.5040000000
H     23.5510000000   16.5740000000   26.1740000000
H     23.9770000000   20.9270000000   25.5250000000
H     24.6810000000   21.5100000000   26.9980000000
H     26.0980000000   19.9860000000   25.4620000000
H     26.0830000000   19.3770000000   27.1020000000
H     24.6550000000   18.4120000000   24.6740000000
H     25.8480000000   17.4980000000   25.5740000000
H     23.4200000000   19.7130000000   28.2910000000
N     21.5070000000   18.2220000000   27.3110000000
H     21.5020000000   18.3570000000   28.3150000000
C     20.4290000000   17.6680000000   26.6550000000
H     19.5850000000   17.5580000000   27.3610000000
O     20.3690000000   17.4530000000   25.4580000000
C     19.0450000000   18.4170000000   22.7540000000
H     19.4520000000   19.3300000000   23.1960000000
H     18.4400000000   18.5350000000   21.8510000000
H     18.4080000000   17.9760000000   23.5250000000
S     20.3250000000   17.2350000000   22.2740000000
C     20.8450000000   18.2000000000   20.8370000000
H     20.0790000000   18.2980000000   20.0640000000
H     21.1400000000   19.1870000000   21.2010000000
H     21.6780000000   17.7110000000   20.3250000000
O     19.4970000000   16.1730000000   21.6200000000
C     22.9940000000   21.5890000000   34.9450000000
H     23.1360000000   21.8450000000   35.9980000000
H     22.8890000000   20.5100000000   34.8050000000
H     23.8440000000   21.9240000000   34.3450000000
S     21.5020000000   22.3260000000   34.2400000000
C     20.5850000000   20.7830000000   34.0300000000
H     19.9710000000   20.9380000000   33.1390000000
H     21.3280000000   20.0130000000   33.8070000000
H     20.0410000000   20.5880000000   34.9580000000
O     21.9900000000   22.7040000000   32.8760000000
C     25.7730000000   14.3470000000   25.6340000000
H     25.3010000000   15.2600000000   25.2620000000
H     25.1370000000   13.5050000000   25.3470000000
H     25.9350000000   14.4250000000   26.7120000000
S     27.3370000000   14.3840000000   24.7290000000
C     28.0140000000   13.0420000000   25.7320000000
H     28.0430000000   13.3150000000   26.7900000000
H     27.3240000000   12.2240000000   25.5120000000
H     29.0010000000   12.8050000000   25.3260000000
O     27.9920000000   15.6160000000   25.2730000000
C     30.2740000000   18.1450000000   30.9150000000
H     30.2840000000   17.2160000000   30.3400000000
H     30.3230000000   17.7880000000   31.9470000000
H     29.2750000000   18.5780000000   30.8230000000
S     31.6420000000   19.2500000000   30.4980000000
C     31.2330000000   19.0930000000   28.7450000000
H     30.2150000000   19.4870000000   28.6830000000
H     31.8380000000   19.7360000000   28.1010000000
H     31.2630000000   18.0530000000   28.4090000000
O     32.8170000000   18.3500000000   30.7240000000
C     21.3180000000   22.7570000000   21.8910000000
H     20.3770000000   22.4970000000   22.3830000000
H     21.0900000000   23.5240000000   21.1460000000
H     21.7990000000   21.8500000000   21.5160000000
S     22.3650000000   23.4590000000   23.1860000000
C     21.7080000000   22.5230000000   24.5840000000
H     22.3550000000   22.5980000000   25.4620000000
H     20.6860000000   22.8210000000   24.8300000000
H     21.7350000000   21.5110000000   24.1720000000
O     21.6420000000   24.7390000000   23.4680000000
C     18.0970000000   14.2530000000   26.1870000000
H     17.5530000000   15.1930000000   26.3140000000
H     18.2110000000   13.6590000000   27.0980000000
H     19.1040000000   14.3530000000   25.7750000000
S     17.1820000000   13.1780000000   25.0590000000
C     17.2030000000   14.2950000000   23.6390000000
H     17.1670000000   15.3300000000   23.9890000000
H     18.1620000000   14.1620000000   23.1320000000
H     16.3150000000   13.9840000000   23.0840000000
O     15.7440000000   13.2850000000   25.4620000000
C     21.6230000000   14.3460000000   24.1050000000
H     20.9210000000   14.4850000000   23.2790000000
H     21.1450000000   14.9500000000   24.8810000000
H     22.5700000000   14.8520000000   23.9000000000
S     21.7500000000   12.6360000000   24.6740000000
C     21.7790000000   11.9160000000   23.0170000000
H     22.6970000000   12.0620000000   22.4410000000
H     21.5110000000   10.8700000000   23.1850000000
H     20.9730000000   12.4460000000   22.5020000000
O     20.3730000000   12.3840000000   25.2040000000
C     28.3670000000   14.8210000000   28.7190000000
H     27.8430000000   13.8870000000   28.9340000000
H     28.6430000000   14.9180000000   27.6660000000
H     29.2290000000   14.9500000000   29.3790000000
S     27.1950000000   16.1420000000   29.1010000000
C     28.0760000000   17.3570000000   28.0940000000
H     27.6240000000   18.2640000000   28.5030000000
H     29.1560000000   17.2570000000   28.2290000000
H     27.8440000000   17.2750000000   27.0290000000
O     27.5570000000   16.6930000000   30.4450000000
C     26.2330000000   22.2100000000   22.3570000000
H     27.1660000000   22.2530000000   21.7890000000
H     25.6100000000   23.0990000000   22.2260000000
H     26.4960000000   22.0940000000   23.4110000000
S     25.2450000000   20.8290000000   21.7380000000
C     24.8840000000   21.5810000000   20.1350000000
H     24.1230000000   22.3600000000   20.2240000000
H     25.7700000000   22.0200000000   19.6690000000
H     24.4810000000   20.8090000000   19.4740000000
O     23.9700000000   20.8440000000   22.5210000000
C     14.9980000000   15.1590000000   28.1330000000
H     15.7980000000   15.7800000000   27.7230000000
H     14.5390000000   14.5550000000   27.3460000000
H     14.2920000000   15.7860000000   28.6830000000
S     15.6920000000   14.1030000000   29.4240000000
C     15.6690000000   15.3110000000   30.7680000000
H     16.0810000000   16.2840000000   30.4870000000
H     14.6130000000   15.4230000000   31.0280000000
H     16.3740000000   15.0030000000   31.5440000000
O     17.1640000000   13.9900000000   29.1750000000
C     28.7900000000   20.3490000000   20.0010000000
H     28.6630000000   21.1690000000   20.7120000000
H     28.8610000000   20.6920000000   18.9660000000
H     28.0440000000   19.5650000000   20.1600000000
S     30.3940000000   19.5660000000   20.2810000000
C     31.5740000000   20.8980000000   19.9660000000
H     32.5850000000   20.4890000000   19.8880000000
H     31.2610000000   21.2500000000   18.9800000000
H     31.6460000000   21.7090000000   20.6940000000
O     30.4530000000   18.8500000000   18.9680000000
C     17.1080000000   20.3830000000   25.6510000000
H     18.1830000000   20.5100000000   25.8000000000
H     16.8120000000   20.5660000000   24.6150000000
H     16.4320000000   20.9630000000   26.2850000000
S     16.6560000000   18.6630000000   25.9700000000
C     14.9480000000   18.8860000000   26.5160000000
H     14.4260000000   17.9450000000   26.7100000000
H     14.8840000000   19.5890000000   27.3500000000
H     14.4420000000   19.4060000000   25.6990000000
O     17.3500000000   18.3580000000   27.2610000000
C     18.8650000000   17.3210000000   30.6720000000
H     18.9900000000   16.2430000000   30.5450000000
H     17.9200000000   17.6420000000   30.2250000000
H     19.7650000000   17.8110000000   30.2940000000
S     18.6300000000   17.5280000000   32.4510000000
C     20.2060000000   16.8310000000   32.9930000000
H     20.1860000000   15.7630000000   32.7600000000
H     21.0450000000   17.2370000000   32.4230000000
H     20.2760000000   16.9390000000   34.0780000000
O     17.5010000000   16.6510000000   32.8970000000
C     23.8550000000   14.4360000000   31.8970000000
H     23.5290000000   14.8750000000   30.9510000000
H     23.0270000000   14.3920000000   32.6090000000
H     24.7840000000   14.9600000000   32.1390000000
S     24.5100000000   12.7700000000   31.6560000000
C     25.5380000000   12.9360000000   30.1800000000
H     25.0020000000   13.5870000000   29.4840000000
H     26.4930000000   13.3950000000   30.4460000000
H     25.7530000000   11.8990000000   29.9100000000
O     23.3540000000   11.8700000000   31.3450000000
C     24.0860000000   20.3810000000   31.3230000000
H     23.8540000000   21.0710000000   32.1380000000
H     25.1520000000   20.1390000000   31.3060000000
H     23.9310000000   20.7920000000   30.3220000000
S     23.1690000000   18.8310000000   31.4740000000
C     24.3010000000   17.9360000000   30.3860000000
H     24.8630000000   18.6750000000   29.8080000000
H     24.9670000000   17.2820000000   30.9540000000
H     23.6860000000   17.3510000000   29.6970000000
O     22.0020000000   19.0230000000   30.5560000000
C     29.5290000000   18.5690000000   24.8420000000
H     29.4950000000   17.4870000000   24.9910000000
H     30.4840000000   18.8030000000   24.3650000000
H     29.4120000000   19.1550000000   25.7570000000
S     28.2200000000   18.9840000000   23.6660000000
C     28.5030000000   17.5830000000   22.5610000000
H     28.3610000000   16.7160000000   23.2110000000
H     27.7800000000   17.6140000000   21.7410000000
H     29.4870000000   17.7810000000   22.1280000000
O     28.8350000000   20.1700000000   22.9900000000
C     24.3460000000   26.4200000000   31.5690000000
H     25.4070000000   26.2170000000   31.7370000000
H     24.2600000000   27.1600000000   30.7700000000
H     23.8380000000   26.6850000000   32.5000000000
S     23.5800000000   24.9260000000   30.8990000000
C     25.0860000000   23.9870000000   30.5620000000
H     24.7760000000   23.0650000000   30.0620000000
H     25.7080000000   24.7070000000   30.0260000000
H     25.4540000000   23.7810000000   31.5710000000
O     23.1160000000   25.4560000000   29.5780000000
C     23.5260000000   14.8680000000   21.1330000000
H     22.7090000000   15.5620000000   21.3470000000
H     23.7620000000   14.7100000000   20.0770000000
H     23.2320000000   13.8770000000   21.4870000000
S     24.9010000000   15.5500000000   22.0870000000
C     24.4280000000   17.2840000000   21.9080000000
H     23.9540000000   17.6210000000   22.8340000000
H     25.3800000000   17.7590000000   21.6570000000
H     23.7590000000   17.3280000000   21.0450000000
O     26.0140000000   15.3170000000   21.1130000000
C     24.4700000000   26.2220000000   24.9530000000
H     25.1160000000   27.0430000000   25.2750000000
H     24.0440000000   26.4330000000   23.9690000000
H     23.6940000000   26.2040000000   25.7220000000
S     25.4330000000   24.6990000000   24.8260000000
C     25.6450000000   24.5360000000   26.6130000000
H     25.9320000000   25.5530000000   26.8930000000
H     24.6620000000   24.3030000000   27.0300000000
H     26.3900000000   23.7450000000   26.7330000000
O     26.7450000000   25.1890000000   24.2950000000
C     20.9650000000   22.8910000000   28.9240000000
H     21.3450000000   22.5880000000   29.9030000000
H     21.3560000000   22.3040000000   28.0890000000
H     21.2560000000   23.9120000000   28.6640000000
S     19.2070000000   22.5640000000   28.6640000000
C     19.2020000000   20.8080000000   29.0900000000
H     19.3760000000   20.6180000000   30.1520000000
H     18.2880000000   20.3200000000   28.7440000000
H     20.0550000000   20.3530000000   28.5800000000
O     19.1510000000   22.4900000000   27.1700000000
C     13.5240000000   19.5660000000   21.9920000000
H     13.5530000000   18.7610000000   21.2540000000
H     12.9630000000   19.2700000000   22.8810000000
H     13.1880000000   20.5270000000   21.5940000000
S     15.2660000000   19.7780000000   22.4260000000
C     16.0000000000   20.6990000000   21.0560000000
H     15.4720000000   21.6560000000   21.0560000000
H     17.0830000000   20.7450000000   21.1970000000
H     15.8700000000   20.2850000000   20.0540000000
O     15.8320000000   18.3930000000   22.3650000000
C     17.0180000000   25.1050000000   25.4570000000
H     17.4560000000   25.1290000000   26.4580000000
H     17.0020000000   26.1600000000   25.1720000000
H     15.9820000000   24.7650000000   25.5330000000
S     18.0350000000   24.0300000000   24.4200000000
C     18.3120000000   25.3460000000   23.2130000000
H     19.1040000000   24.8620000000   22.6370000000
H     17.3310000000   25.5300000000   22.7690000000
H     18.7800000000   26.1500000000   23.7870000000
O     17.0780000000   23.0790000000   23.7710000000
C     28.6360000000   23.6670000000   28.5270000000
H     28.6760000000   23.9070000000   29.5920000000
H     29.6020000000   23.9470000000   28.1000000000
H     27.7840000000   24.2540000000   28.1750000000
S     28.2760000000   21.9140000000   28.2750000000
C     28.7350000000   22.0190000000   26.5300000000
H     28.2560000000   22.8950000000   26.0850000000
H     29.8220000000   22.0130000000   26.4200000000
H     28.3630000000   21.1410000000   25.9950000000
O     26.7880000000   21.7420000000   28.2750000000
C     21.1030000000   13.2940000000   29.4170000000
H     21.8930000000   12.7970000000   29.9860000000
H     20.7030000000   14.2780000000   29.6750000000
H     20.2550000000   12.6370000000   29.2100000000
S     22.0450000000   13.6160000000   27.9080000000
C     22.9150000000   12.0350000000   27.8190000000
H     22.1980000000   11.2180000000   27.7100000000
H     23.6010000000   12.2460000000   26.9950000000
H     23.5280000000   12.0120000000   28.7240000000
O     23.0440000000   14.6470000000   28.3330000000
C     30.6370000000   25.9800000000   22.1370000000
H     30.9580000000   26.1380000000   23.1700000000
H     31.4520000000   25.5840000000   21.5260000000
H     30.3640000000   26.9320000000   21.6750000000
S     29.3030000000   24.7610000000   22.1550000000
C     30.3570000000   23.4210000000   22.7540000000
H     29.7670000000   22.5010000000   22.7210000000
H     31.2900000000   23.3410000000   22.1910000000
H     30.6200000000   23.5680000000   23.8050000000
O     29.1160000000   24.4150000000   20.7100000000
C     25.2270000000    9.7580000000   21.8850000000
H     24.1410000000    9.6830000000   21.7920000000
H     25.6140000000    9.4170000000   20.9210000000
H     25.6010000000    9.1530000000   22.7140000000
S     25.6480000000   11.4780000000   22.2450000000
C     27.4430000000   11.2680000000   22.2630000000
H     27.5630000000   10.4470000000   22.9740000000
H     27.7440000000   11.0440000000   21.2370000000
H     27.8730000000   12.1930000000   22.6570000000
O     25.3590000000   11.6220000000   23.7070000000
