292

C     24.2890000000   28.4540000000   25.8590000000
C     25.3180000000   29.3350000000   26.5860000000
C     26.6480000000   28.5880000000   26.7790000000
C     27.2810000000   27.9780000000   25.5170000000
C     26.2130000000   27.1700000000   24.7630000000
C     24.8920000000   27.9270000000   24.5460000000
H     27.4140000000   29.1740000000   27.3020000000
H     25.5620000000   30.2400000000   26.0150000000
H     24.1510000000   27.5480000000   26.4610000000
H     23.2850000000   28.8450000000   25.6590000000
H     27.7230000000   28.7960000000   24.9350000000
H     28.0620000000   27.2860000000   25.8550000000
H     26.7550000000   26.8990000000   23.8490000000
H     25.9530000000   26.2340000000   25.2720000000
H     25.1390000000   28.7630000000   23.8800000000
H     24.1970000000   27.2320000000   24.0590000000
H     26.5120000000   27.7410000000   27.4620000000
N     24.7150000000   29.7230000000   27.8600000000
H     24.1870000000   29.0030000000   28.3390000000
C     24.9230000000   30.8950000000   28.5560000000
H     24.2720000000   30.9530000000   29.4470000000
O     25.7060000000   31.7780000000   28.2520000000
C     25.0850000000   25.4820000000   20.4780000000
H     25.2890000000   26.5200000000   20.2030000000
H     25.5850000000   25.2030000000   21.4090000000
H     25.4270000000   24.8410000000   19.6610000000
S     23.3500000000   25.3250000000   20.9580000000
C     22.8430000000   26.1720000000   19.4440000000
H     23.1300000000   25.7540000000   18.4750000000
H     21.7600000000   26.3070000000   19.4930000000
H     23.3440000000   27.1270000000   19.6220000000
O     23.2280000000   26.3840000000   22.0090000000
C     30.7060000000   29.8320000000   23.4570000000
H     30.3490000000   30.3310000000   22.5530000000
H     29.9310000000   29.9030000000   24.2240000000
H     31.6980000000   30.1600000000   23.7800000000
S     30.6830000000   28.0480000000   23.1750000000
C     31.7010000000   27.6270000000   24.6070000000
H     30.8680000000   27.6210000000   25.3150000000
H     32.1270000000   26.6440000000   24.3940000000
H     32.5300000000   28.3090000000   24.8100000000
O     31.5940000000   27.9360000000   21.9920000000
C     24.5900000000   30.3190000000   16.5440000000
H     23.7730000000   30.4190000000   15.8240000000
H     24.4020000000   30.7230000000   17.5420000000
H     25.4640000000   30.8710000000   16.1870000000
S     24.8320000000   28.5560000000   16.8550000000
C     23.0620000000   28.2440000000   16.6680000000
H     22.4750000000   29.0260000000   17.1560000000
H     22.8040000000   28.4610000000   15.6280000000
H     22.7520000000   27.2500000000   16.9990000000
O     24.9360000000   28.4570000000   18.3450000000
C     28.3090000000   32.8290000000   25.3170000000
H     28.2130000000   33.5900000000   26.0960000000
H     27.3590000000   32.3530000000   25.0610000000
H     28.9470000000   31.9910000000   25.6060000000
S     29.0980000000   33.6240000000   23.8980000000
C     30.6780000000   33.9360000000   24.7170000000
H     30.4460000000   34.3410000000   25.7060000000
H     31.1970000000   32.9870000000   24.8770000000
H     31.3130000000   34.6440000000   24.1790000000
O     28.4920000000   34.9920000000   23.9070000000
C     25.3730000000   29.9710000000   21.4760000000
H     25.0620000000   29.7930000000   20.4430000000
H     25.8870000000   29.0830000000   21.8510000000
H     24.5410000000   30.2290000000   22.1350000000
S     26.4820000000   31.3960000000   21.5480000000
C     27.8520000000   30.9480000000   20.4580000000
H     28.3330000000   30.0820000000   20.9200000000
H     27.5030000000   30.8340000000   19.4290000000
H     28.5250000000   31.8070000000   20.3880000000
O     27.1550000000   31.2860000000   22.8810000000
C     28.2280000000   35.8320000000   34.1850000000
H     27.3770000000   35.6650000000   34.8500000000
H     28.8380000000   34.9290000000   34.1000000000
H     28.8440000000   36.6420000000   34.5840000000
S     27.6470000000   36.2450000000   32.5240000000
C     26.2350000000   37.1950000000   33.1320000000
H     25.8200000000   37.7350000000   32.2780000000
H     25.5250000000   36.6300000000   33.7410000000
H     26.7490000000   37.9470000000   33.7360000000
O     27.0550000000   35.0190000000   31.9020000000
C     31.7640000000   32.0260000000   27.8980000000
H     32.2150000000   32.5110000000   28.7680000000
H     32.4220000000   32.1030000000   27.0290000000
H     30.8740000000   32.5590000000   27.5560000000
S     31.3090000000   30.2980000000   28.1650000000
C     33.0460000000   29.8240000000   28.3200000000
H     33.4190000000   30.2250000000   29.2660000000
H     33.1100000000   28.7360000000   28.4040000000
H     33.6150000000   30.1690000000   27.4520000000
O     30.9660000000   29.9670000000   26.7460000000
C     25.0120000000   22.6530000000   32.4710000000
H     24.5300000000   21.7480000000   32.0930000000
H     26.0640000000   22.6550000000   32.7680000000
H     24.4080000000   22.9470000000   33.3330000000
S     24.6280000000   23.9570000000   31.2800000000
C     23.0670000000   23.3880000000   30.5690000000
H     22.2690000000   23.5420000000   31.3000000000
H     22.8710000000   23.9500000000   29.6520000000
H     23.2110000000   22.3230000000   30.3740000000
O     25.5740000000   23.6500000000   30.1610000000
C     23.1340000000   24.1800000000   24.3680000000
H     22.3190000000   24.7600000000   24.8080000000
H     24.0620000000   24.7340000000   24.2020000000
H     22.6700000000   23.8820000000   23.4250000000
S     23.5050000000   22.9000000000   25.5890000000
C     24.3240000000   23.7820000000   26.9370000000
H     23.4970000000   24.3120000000   27.4160000000
H     24.7820000000   23.0480000000   27.6050000000
H     24.9640000000   24.5900000000   26.5750000000
O     24.6240000000   22.1470000000   24.9400000000
C     28.6240000000   27.4180000000   19.6630000000
H     29.2170000000   28.1810000000   20.1730000000
H     27.8180000000   27.0440000000   20.2990000000
H     29.2940000000   26.5950000000   19.4010000000
S     27.8270000000   28.0580000000   18.1730000000
C     28.0920000000   26.6530000000   17.0680000000
H     29.1550000000   26.5650000000   16.8310000000
H     27.7000000000   25.7410000000   17.5260000000
H     27.5300000000   26.9650000000   16.1840000000
O     28.8370000000   28.9580000000   17.5320000000
C     24.0450000000   33.8210000000   25.8200000000
H     24.9950000000   33.4140000000   26.1760000000
H     23.9010000000   34.9000000000   25.9240000000
H     23.2560000000   33.3350000000   26.3990000000
S     23.9500000000   33.1640000000   24.1400000000
C     24.4720000000   34.5740000000   23.1370000000
H     25.5220000000   34.7480000000   23.3860000000
H     24.3610000000   34.4810000000   22.0530000000
H     23.8630000000   35.4240000000   23.4550000000
O     22.4970000000   33.0910000000   23.7900000000
C     18.1440000000   28.6850000000   31.2180000000
H     17.4070000000   28.1860000000   30.5840000000
H     17.6810000000   29.2880000000   32.0030000000
H     18.7710000000   29.3990000000   30.6770000000
S     19.0430000000   27.3830000000   32.0900000000
C     19.4180000000   26.3040000000   30.6890000000
H     19.6070000000   25.2870000000   31.0410000000
H     18.7200000000   26.4700000000   29.8640000000
H     20.3890000000   26.6130000000   30.2920000000
O     17.9300000000   26.6530000000   32.7740000000
C     28.4210000000   33.6030000000   29.3350000000
H     28.7700000000   33.0160000000   30.1890000000
H     27.3300000000   33.6690000000   29.3670000000
H     28.6470000000   33.1130000000   28.3850000000
S     29.2590000000   35.1950000000   29.5040000000
C     28.4480000000   35.9460000000   28.0740000000
H     29.0670000000   36.8140000000   27.8350000000
H     28.4530000000   35.2510000000   27.2290000000
H     27.4590000000   36.0700000000   28.5230000000
O     30.5580000000   34.8010000000   28.8730000000
C     21.0050000000   27.3120000000   25.0870000000
H     21.6700000000   27.4220000000   25.9480000000
H     21.5510000000   26.8330000000   24.2700000000
H     20.6020000000   28.2840000000   24.7920000000
S     19.7010000000   26.1140000000   25.4450000000
C     18.9590000000   27.2000000000   26.6840000000
H     18.5870000000   28.1180000000   26.2220000000
H     18.2570000000   26.5750000000   27.2410000000
H     19.8320000000   27.4860000000   27.2760000000
O     20.2960000000   25.0550000000   26.3200000000
C     19.4860000000   32.2330000000   32.6770000000
H     19.2550000000   33.1490000000   33.2260000000
H     19.9620000000   32.4450000000   31.7160000000
H     18.5410000000   31.7070000000   32.5230000000
S     20.4360000000   31.2460000000   33.8550000000
C     21.9330000000   32.2530000000   33.9490000000
H     22.8820000000   31.7510000000   34.1540000000
H     22.0030000000   32.8140000000   33.0130000000
H     21.7150000000   32.9550000000   34.7570000000
O     20.9220000000   30.1460000000   32.9640000000
C     20.0110000000   24.7770000000   22.0310000000
H     19.0180000000   25.0290000000   22.4140000000
H     20.8230000000   25.1280000000   22.6730000000
H     19.9940000000   25.3360000000   21.0920000000
S     20.1410000000   23.0030000000   21.7130000000
C     19.6820000000   22.4920000000   23.3840000000
H     18.6570000000   22.8530000000   23.5010000000
H     19.7800000000   21.4050000000   23.3260000000
H     20.3500000000   22.9140000000   24.1390000000
O     21.6210000000   22.8340000000   21.5660000000
C     22.7790000000   26.4950000000   31.9830000000
H     21.9270000000   27.1680000000   32.1130000000
H     22.4130000000   25.8440000000   31.1850000000
H     22.9500000000   25.8440000000   32.8440000000
S     24.2970000000   27.3810000000   31.5630000000
C     23.7330000000   29.0670000000   31.8850000000
H     24.5690000000   29.7570000000   31.7390000000
H     22.8920000000   29.2020000000   31.2010000000
H     23.3920000000   29.1670000000   32.9180000000
O     24.1400000000   27.2930000000   30.0770000000
C     28.8340000000   22.5540000000   17.2130000000
H     29.7450000000   22.0950000000   16.8200000000
H     28.0800000000   21.7630000000   17.2410000000
H     28.4590000000   23.4610000000   16.7320000000
S     29.2540000000   23.0990000000   18.8850000000
C     29.1830000000   21.4050000000   19.5100000000
H     30.0340000000   20.8760000000   19.0720000000
H     29.2800000000   21.4260000000   20.5990000000
H     28.2220000000   20.9840000000   19.2030000000
O     28.0120000000   23.7770000000   19.3750000000
C     32.5170000000   24.0530000000   28.6640000000
H     31.8060000000   23.6880000000   29.4100000000
H     32.1940000000   23.9420000000   27.6260000000
H     33.4920000000   23.5790000000   28.7990000000
S     32.8160000000   25.7840000000   29.0900000000
C     31.4440000000   26.3190000000   28.0430000000
H     30.5990000000   25.7730000000   28.4710000000
H     31.3620000000   27.3800000000   28.2940000000
H     31.5190000000   26.2500000000   26.9550000000
O     34.0520000000   26.0720000000   28.2960000000
C     21.3820000000   29.9140000000   22.2200000000
H     22.3400000000   29.4230000000   22.4100000000
H     21.5370000000   30.9810000000   22.4010000000
H     20.5900000000   29.4990000000   22.8490000000
S     20.7610000000   29.4710000000   20.5820000000
C     22.0810000000   30.3690000000   19.7380000000
H     22.3200000000   31.2670000000   20.3150000000
H     22.9330000000   29.6850000000   19.7150000000
H     21.8080000000   30.6870000000   18.7280000000
O     19.5520000000   30.3410000000   20.4300000000
C     26.6650000000   37.1670000000   25.4680000000
H     27.0440000000   37.4280000000   26.4590000000
H     26.8000000000   36.0850000000   25.3910000000
H     27.2770000000   37.6320000000   24.6920000000
S     24.9250000000   37.6560000000   25.4520000000
C     25.2080000000   39.4410000000   25.4400000000
H     25.4490000000   39.7270000000   24.4130000000
H     24.2640000000   39.8950000000   25.7490000000
H     25.9810000000   39.7740000000   26.1370000000
O     24.4490000000   37.3200000000   26.8310000000
C     21.5970000000   31.2570000000   26.9460000000
H     22.6340000000   31.2110000000   27.2860000000
H     21.4370000000   30.8730000000   25.9350000000
H     21.3200000000   32.2950000000   27.1470000000
S     20.8610000000   30.1070000000   28.1290000000
C     21.0450000000   31.2050000000   29.5530000000
H     22.1040000000   31.4750000000   29.5570000000
H     20.3370000000   31.9970000000   29.2990000000
H     20.7150000000   30.6310000000   30.4230000000
O     21.8850000000   29.0170000000   28.2010000000
C     18.3990000000   32.7280000000   25.4290000000
H     18.6590000000   33.7560000000   25.1620000000
H     17.3090000000   32.6460000000   25.4410000000
H     18.8550000000   32.5470000000   26.4060000000
S     19.2220000000   31.6110000000   24.2710000000
C     17.9170000000   31.6190000000   23.0210000000
H     18.1310000000   30.8570000000   22.2670000000
H     16.9680000000   31.5270000000   23.5570000000
H     17.9040000000   32.6150000000   22.5720000000
O     19.0430000000   30.2550000000   24.8800000000
C     28.5870000000   30.7470000000   34.7660000000
H     28.5770000000   29.8380000000   35.3740000000
H     29.1110000000   30.6430000000   33.8120000000
H     28.8810000000   31.5430000000   35.4540000000
S     26.8670000000   30.9480000000   34.2530000000
C     26.9720000000   32.7520000000   34.2230000000
H     27.3530000000   33.2490000000   35.1190000000
H     27.6640000000   33.0800000000   33.4440000000
H     26.0050000000   33.1560000000   33.9130000000
O     25.9850000000   30.7370000000   35.4440000000
C     28.1760000000   22.8450000000   25.6720000000
H     27.1290000000   22.7370000000   25.3800000000
H     28.8030000000   22.0250000000   25.3140000000
H     28.2910000000   22.7570000000   26.7560000000
S     28.6090000000   24.5180000000   25.1440000000
C     28.7270000000   23.8840000000   23.4560000000
H     29.0220000000   24.7030000000   22.7940000000
H     29.5620000000   23.1780000000   23.4400000000
H     27.8180000000   23.3410000000   23.1850000000
O     30.0720000000   24.5740000000   25.4550000000
C     27.6250000000   27.4190000000   30.3190000000
H     27.2580000000   26.5190000000   30.8180000000
H     27.1190000000   27.4870000000   29.3530000000
H     28.6970000000   27.2290000000   30.2200000000
S     27.3840000000   28.9980000000   31.1640000000
C     28.3730000000   29.9830000000   30.0170000000
H     29.2750000000   29.4140000000   29.7770000000
H     27.7210000000   30.1590000000   29.1580000000
H     28.6930000000   30.9270000000   30.4650000000
O     28.4160000000   28.8940000000   32.2430000000
C     23.6800000000   34.7120000000   31.3650000000
H     23.8990000000   33.6470000000   31.4730000000
H     24.3450000000   35.3750000000   31.9250000000
H     22.6420000000   34.9480000000   31.6140000000
S     23.6510000000   35.1370000000   29.6080000000
C     23.1240000000   36.8610000000   29.7300000000
H     22.4020000000   36.9600000000   30.5450000000
H     23.9670000000   37.5350000000   29.9050000000
H     22.6790000000   37.1490000000   28.7740000000
O     22.4960000000   34.3260000000   29.1090000000
