282

C     21.9290000000   14.5470000000   28.8020000000
C     22.5910000000   14.7560000000   27.4300000000
C     23.4740000000   16.0080000000   27.2990000000
C     24.4260000000   16.1490000000   28.4980000000
C     23.5900000000   16.1490000000   29.7890000000
C     22.8770000000   14.8020000000   29.9850000000
H     24.0120000000   16.1390000000   26.3520000000
H     23.2600000000   13.8880000000   27.3850000000
H     20.9870000000   15.0970000000   28.9140000000
H     21.6770000000   13.4800000000   28.8460000000
H     25.1540000000   15.3290000000   28.4810000000
H     24.9180000000   17.1180000000   28.3570000000
H     24.1760000000   16.3850000000   30.6860000000
H     22.8880000000   16.9910000000   29.8270000000
H     23.5930000000   13.9760000000   29.8930000000
H     22.3290000000   14.8510000000   30.9340000000
H     22.7600000000   16.8390000000   27.3420000000
N     21.6560000000   14.6250000000   26.3150000000
H     20.6680000000   14.8360000000   26.3870000000
C     21.9900000000   13.9160000000   25.1800000000
H     21.0860000000   13.6940000000   24.5830000000
O     23.0890000000   13.4490000000   24.9400000000
C     20.0240000000   18.3120000000   29.5330000000
H     19.0530000000   18.3760000000   30.0310000000
H     20.2950000000   17.3050000000   29.2040000000
H     20.9170000000   18.7940000000   29.9400000000
S     19.6640000000   19.2930000000   28.0590000000
C     21.3490000000   19.8710000000   27.7580000000
H     21.7780000000   19.5730000000   26.7980000000
H     21.3240000000   20.9630000000   27.7670000000
H     22.0490000000   19.5000000000   28.5120000000
O     18.8080000000   20.4220000000   28.5450000000
C     19.2580000000   19.3700000000   21.4200000000
H     18.7220000000   19.8190000000   20.5800000000
H     20.3440000000   19.4490000000   21.3240000000
H     18.8440000000   18.4430000000   21.8250000000
S     18.9230000000   20.5680000000   22.7310000000
C     19.7080000000   22.0630000000   22.0880000000
H     19.8000000000   22.8130000000   22.8780000000
H     20.7320000000   21.7510000000   21.8670000000
H     19.1270000000   22.3040000000   21.1950000000
O     19.8110000000   20.1330000000   23.8550000000
C     25.8660000000   12.7840000000   27.4020000000
H     25.1660000000   12.7670000000   28.2420000000
H     26.2550000000   13.7820000000   27.1820000000
H     25.5250000000   12.3740000000   26.4480000000
S     27.2740000000   11.7490000000   27.8610000000
C     26.4580000000   10.1460000000   27.6960000000
H     25.5370000000   10.0510000000   28.2780000000
H     26.1860000000   10.0180000000   26.6450000000
H     27.1610000000    9.3660000000   28.0010000000
O     27.4510000000   11.9450000000   29.3350000000
C     16.6990000000   10.2140000000   19.5480000000
H     17.2500000000    9.3620000000   19.9540000000
H     15.6380000000   10.1440000000   19.8000000000
H     16.7260000000   10.3950000000   18.4710000000
S     17.3870000000   11.6970000000   20.3180000000
C     16.6820000000   11.4760000000   21.9670000000
H     17.3050000000   12.0780000000   22.6330000000
H     15.6960000000   11.9470000000   21.9560000000
H     16.7870000000   10.4270000000   22.2570000000
O     16.6960000000   12.9150000000   19.7890000000
C     26.9400000000   17.9990000000   35.9160000000
H     26.5990000000   17.0700000000   36.3790000000
H     27.3300000000   18.7650000000   36.5910000000
H     26.0230000000   18.3950000000   35.4730000000
S     28.1430000000   17.6070000000   34.6250000000
C     29.4800000000   17.4040000000   35.8240000000
H     29.3780000000   18.2160000000   36.5490000000
H     29.3960000000   16.4390000000   36.3290000000
H     30.4070000000   17.4060000000   35.2460000000
O     28.3480000000   19.0140000000   34.1590000000
C     20.3340000000    8.8450000000   34.5180000000
H     19.8820000000    8.9140000000   35.5110000000
H     19.6760000000    9.2740000000   33.7580000000
H     20.5070000000    7.7930000000   34.2770000000
S     21.8900000000    9.7640000000   34.5220000000
C     22.8040000000    8.8910000000   35.8140000000
H     22.8580000000    7.8290000000   35.5610000000
H     23.8210000000    9.2760000000   35.9190000000
H     22.1370000000    8.8770000000   36.6800000000
O     21.5240000000   11.0250000000   35.2410000000
C     12.9570000000   15.8520000000   25.3540000000
H     13.0100000000   15.4280000000   24.3480000000
H     12.3670000000   15.0330000000   25.7720000000
H     12.4460000000   16.8140000000   25.4390000000
S     14.6030000000   16.1310000000   26.0460000000
C     15.2360000000   14.4770000000   25.6890000000
H     14.5640000000   13.6950000000   26.0510000000
H     15.3760000000   14.3990000000   24.6070000000
H     16.1820000000   14.3030000000   26.2080000000
O     14.4040000000   16.2310000000   27.5260000000
C     19.3160000000    6.6230000000   30.7490000000
H     19.6470000000    6.6480000000   31.7910000000
H     18.2880000000    6.9810000000   30.6470000000
H     19.3930000000    5.5560000000   30.5240000000
S     20.1880000000    7.6500000000   29.5460000000
C     20.0600000000    9.1840000000   30.4940000000
H     20.4640000000    9.1040000000   31.5070000000
H     20.4580000000   10.0630000000   29.9810000000
H     18.9900000000    9.3910000000   30.5660000000
O     19.1080000000    7.9490000000   28.5530000000
C     28.9330000000   15.6400000000   23.6950000000
H     27.8700000000   15.5690000000   23.9360000000
H     29.3500000000   16.4080000000   24.3510000000
H     29.2020000000   15.9220000000   22.6730000000
S     29.7370000000   14.0850000000   24.1430000000
C     28.8800000000   13.9340000000   25.7270000000
H     29.2170000000   14.7320000000   26.3940000000
H     27.8020000000   13.9120000000   25.5510000000
H     29.2080000000   12.9660000000   26.1150000000
O     31.1530000000   14.3510000000   24.5490000000
C     28.0790000000   21.5760000000   31.5840000000
H     28.5390000000   21.3550000000   32.5500000000
H     28.3920000000   22.4740000000   31.0460000000
H     27.0030000000   21.6180000000   31.7720000000
S     28.1780000000   20.2060000000   30.4100000000
C     29.9680000000   20.4260000000   30.2890000000
H     30.3450000000   19.5020000000   29.8430000000
H     30.1890000000   21.2910000000   29.6580000000
H     30.3850000000   20.5300000000   31.2940000000
O     27.6350000000   20.6540000000   29.0890000000
C     20.1040000000   17.0340000000   33.1280000000
H     20.9270000000   17.4160000000   32.5180000000
H     19.6320000000   16.2720000000   32.5020000000
H     19.3610000000   17.7590000000   33.4710000000
S     20.8650000000   16.3540000000   34.6190000000
C     21.5290000000   17.9450000000   35.1610000000
H     22.1810000000   17.9370000000   36.0390000000
H     22.0820000000   18.5470000000   34.4350000000
H     20.6540000000   18.5470000000   35.4180000000
O     22.1110000000   15.6630000000   34.1600000000
C     29.2810000000   14.5150000000   30.6660000000
H     28.8330000000   13.7610000000   30.0140000000
H     30.3030000000   14.5940000000   30.2850000000
H     29.1330000000   14.3380000000   31.7340000000
S     28.4180000000   16.0420000000   30.2310000000
C     26.8670000000   15.5250000000   31.0000000000
H     26.8920000000   15.7150000000   32.0760000000
H     26.1980000000   16.2430000000   30.5190000000
H     26.6540000000   14.5160000000   30.6370000000
O     28.0110000000   15.8870000000   28.7990000000
C     23.7850000000   15.1040000000   20.3350000000
H     24.5590000000   15.7080000000   20.8140000000
H     23.4120000000   14.2050000000   20.8320000000
H     24.1240000000   14.8500000000   19.3270000000
S     22.2940000000   16.0870000000   20.0640000000
C     23.3020000000   17.4280000000   19.3940000000
H     23.8730000000   17.8670000000   20.2170000000
H     23.9320000000   16.9860000000   18.6180000000
H     22.5760000000   18.1410000000   18.9950000000
O     21.7500000000   16.5030000000   21.3950000000
C     23.4560000000   22.5430000000   30.3700000000
H     24.2640000000   23.2790000000   30.3880000000
H     22.8900000000   22.7120000000   29.4500000000
H     22.9380000000   22.4550000000   31.3280000000
S     24.3610000000   21.0000000000   30.1110000000
C     24.6170000000   21.1610000000   28.3290000000
H     25.1610000000   22.0890000000   28.1370000000
H     25.2120000000   20.3090000000   27.9900000000
H     23.6460000000   21.2480000000   27.8350000000
O     23.3250000000   19.9290000000   30.2440000000
C     29.0420000000   19.5690000000   26.1970000000
H     29.0020000000   20.2340000000   27.0640000000
H     29.4570000000   18.5920000000   26.4560000000
H     29.6250000000   20.0520000000   25.4090000000
S     27.4230000000   19.2660000000   25.4540000000
C     26.8360000000   17.9930000000   26.5930000000
H     27.3530000000   17.0440000000   26.4260000000
H     27.0760000000   18.2910000000   27.6170000000
H     25.7610000000   17.8890000000   26.4250000000
O     27.7190000000   18.4830000000   24.2130000000
C     24.4470000000   17.5160000000   23.8090000000
H     24.9250000000   16.9200000000   24.5900000000
H     23.8380000000   16.8370000000   23.2060000000
H     25.2670000000   17.9180000000   23.2080000000
S     23.3540000000   18.8310000000   24.3950000000
C     22.8750000000   19.3420000000   22.7290000000
H     23.7850000000   19.7600000000   22.2920000000
H     22.4640000000   18.4730000000   22.2080000000
H     22.1690000000   20.1680000000   22.8500000000
O     24.2180000000   19.9850000000   24.7960000000
C     18.8880000000   11.8850000000   27.1570000000
H     18.0420000000   12.2180000000   27.7640000000
H     19.1630000000   10.8310000000   27.2490000000
H     19.7400000000   12.5610000000   27.2740000000
S     18.4390000000   12.1750000000   25.4310000000
C     17.1710000000   10.8890000000   25.4920000000
H     16.5180000000   11.0730000000   24.6360000000
H     17.7660000000    9.9790000000   25.3820000000
H     16.6680000000   10.8130000000   26.4600000000
O     19.4870000000   11.6140000000   24.5220000000
C     17.8770000000   13.7120000000   33.0950000000
H     18.5180000000   14.0980000000   33.8910000000
H     17.7210000000   14.4880000000   32.3410000000
H     16.8860000000   13.4070000000   33.4420000000
S     18.6770000000   12.2250000000   32.4520000000
C     20.1720000000   13.0650000000   31.8830000000
H     19.8890000000   13.9470000000   31.3040000000
H     20.6780000000   13.4020000000   32.7910000000
H     20.7640000000   12.3850000000   31.2650000000
O     18.0340000000   12.0000000000   31.1190000000
C     20.8220000000   13.0830000000   21.3060000000
H     21.5730000000   13.3130000000   22.0660000000
H     20.6750000000   13.8210000000   20.5120000000
H     19.8850000000   12.8940000000   21.8360000000
S     21.2100000000   11.5410000000   20.4480000000
C     21.2980000000   10.5200000000   21.9360000000
H     20.5290000000   10.9310000000   22.5940000000
H     20.9500000000    9.5470000000   21.5790000000
H     22.3450000000   10.5490000000   22.2470000000
O     22.6450000000   11.7030000000   20.0530000000
C     15.7020000000   18.9600000000   29.4280000000
H     15.9750000000   20.0100000000   29.3010000000
H     16.5290000000   18.3490000000   29.0570000000
H     14.7200000000   18.7630000000   28.9910000000
S     15.5980000000   18.6730000000   31.2090000000
C     15.3440000000   16.9090000000   30.9090000000
H     14.8890000000   16.5140000000   31.8210000000
H     14.5950000000   16.8010000000   30.1210000000
H     16.2650000000   16.4130000000   30.5920000000
O     14.2840000000   19.2310000000   31.6600000000
C     28.1590000000   12.5310000000   36.6770000000
H     27.9780000000   11.4960000000   36.3770000000
H     29.1810000000   12.7470000000   36.9990000000
H     27.4430000000   12.8470000000   37.4410000000
S     27.9430000000   13.7140000000   35.3280000000
C     26.5910000000   12.8570000000   34.4900000000
H     25.8600000000   12.5290000000   35.2340000000
H     26.1780000000   13.4690000000   33.6840000000
H     26.9100000000   11.9420000000   33.9850000000
O     29.1020000000   13.5240000000   34.3990000000
C     14.7030000000   14.8080000000   21.1630000000
H     14.8000000000   14.3810000000   20.1620000000
H     15.1880000000   14.1140000000   21.8540000000
H     13.6800000000   14.8450000000   21.5480000000
S     15.6500000000   16.3120000000   21.4880000000
C     17.3020000000   15.7830000000   20.9790000000
H     17.9860000000   16.3960000000   21.5720000000
H     17.4900000000   14.7570000000   21.3040000000
H     17.4810000000   15.8920000000   19.9060000000
O     15.6240000000   16.4110000000   22.9820000000
C     25.2010000000   10.0830000000   31.9840000000
H     24.7930000000    9.4970000000   32.8100000000
H     25.5290000000    9.4140000000   31.1840000000
H     26.0360000000   10.6580000000   32.3940000000
S     23.8310000000   11.1230000000   31.4290000000
C     23.6500000000   12.3190000000   32.7710000000
H     22.7170000000   12.8890000000   32.7630000000
H     23.7250000000   11.7730000000   33.7150000000
H     24.4710000000   13.0400000000   32.7900000000
O     22.5770000000   10.3100000000   31.5130000000
C     22.2170000000    9.9150000000   27.4700000000
H     22.3300000000    8.8890000000   27.8290000000
H     22.7880000000   10.6290000000   28.0690000000
H     21.1590000000   10.1620000000   27.5850000000
S     22.6640000000   10.0290000000   25.7220000000
C     21.3620000000    8.9890000000   25.0250000000
H     21.3020000000    8.0530000000   25.5880000000
H     20.5420000000    9.7010000000   25.1420000000
H     21.5650000000    8.7500000000   23.9780000000
O     23.8510000000    9.1430000000   25.5030000000
C     25.6210000000   11.1590000000   21.9760000000
H     26.4290000000   11.5350000000   21.3420000000
H     25.7060000000   10.0850000000   22.1580000000
H     24.6600000000   11.4360000000   21.5350000000
S     25.7240000000   11.7780000000   23.6700000000
C     25.8300000000   13.5330000000   23.2530000000
H     26.1040000000   14.0180000000   24.1930000000
H     26.5360000000   13.7270000000   22.4410000000
H     24.8500000000   13.8300000000   22.8710000000
O     27.0800000000   11.3460000000   24.1350000000
C     19.7570000000   16.9400000000   24.3490000000
H     20.2260000000   17.8620000000   24.7030000000
H     20.5360000000   16.1830000000   24.4770000000
H     19.5830000000   17.1070000000   23.2830000000
S     18.3280000000   16.3540000000   25.2870000000
C     17.5740000000   17.9000000000   25.8400000000
H     18.2040000000   18.7670000000   25.6260000000
H     16.5940000000   17.9960000000   25.3660000000
H     17.4730000000   17.8530000000   26.9270000000
O     19.1240000000   15.9790000000   26.4990000000
