282

C     25.4950000000   18.8530000000   26.1280000000
C     24.5820000000   20.0900000000   26.1570000000
C     25.3580000000   21.3330000000   26.6220000000
C     26.7420000000   21.4930000000   25.9730000000
C     27.5800000000   20.2040000000   25.9720000000
C     26.7870000000   19.0590000000   25.3200000000
H     24.8270000000   22.2210000000   26.2560000000
H     24.2700000000   20.3180000000   25.1300000000
H     25.5610000000   18.3380000000   27.0940000000
H     24.9010000000   18.1940000000   25.4840000000
H     26.6410000000   21.8010000000   24.9250000000
H     27.3290000000   22.2990000000   26.4300000000
H     28.4420000000   20.3510000000   25.3110000000
H     27.9060000000   20.0590000000   27.0100000000
H     26.5460000000   19.3010000000   24.2780000000
H     27.3090000000   18.0990000000   25.2250000000
H     25.4510000000   21.4120000000   27.7120000000
N     23.4370000000   19.7870000000   27.0130000000
H     23.4840000000   20.1220000000   27.9670000000
C     22.2460000000   19.1990000000   26.6410000000
H     21.4720000000   19.1750000000   27.4290000000
O     22.0400000000   18.7610000000   25.5230000000
C     20.7080000000   27.6510000000   28.4340000000
H     20.7030000000   28.7440000000   28.4270000000
H     19.7330000000   27.2000000000   28.6370000000
H     21.4810000000   27.2340000000   29.0850000000
S     20.9190000000   27.0830000000   26.7320000000
C     22.1760000000   28.2560000000   26.1750000000
H     22.7640000000   27.8530000000   25.3470000000
H     21.8880000000   29.2910000000   25.9760000000
H     22.8460000000   28.1990000000   27.0370000000
O     19.6460000000   27.5790000000   26.1200000000
C     21.4140000000   18.0940000000   22.4920000000
H     21.0620000000   17.1970000000   23.0080000000
H     20.9400000000   18.9210000000   23.0270000000
H     21.1470000000   18.0970000000   21.4320000000
S     23.2140000000   18.2590000000   22.5030000000
C     23.1710000000   19.8100000000   21.5760000000
H     24.0480000000   19.8380000000   20.9250000000
H     22.2850000000   19.6770000000   20.9500000000
H     22.9910000000   20.6800000000   22.2140000000
O     23.6670000000   17.2160000000   21.5300000000
C     33.1430000000   18.6800000000   29.7280000000
H     34.1590000000   18.4810000000   30.0770000000
H     32.7370000000   19.2920000000   30.5380000000
H     32.6230000000   17.7590000000   29.4510000000
S     33.5640000000   19.6590000000   28.2690000000
C     34.2240000000   21.0540000000   29.2080000000
H     35.1980000000   20.6850000000   29.5410000000
H     34.4240000000   21.9460000000   28.6080000000
H     33.5950000000   21.2110000000   30.0870000000
O     32.2700000000   20.1840000000   27.7290000000
C     29.3480000000   15.2570000000   25.1920000000
H     29.3260000000   14.1770000000   25.3580000000
H     29.9510000000   15.7260000000   25.9730000000
H     28.3110000000   15.5980000000   25.2580000000
S     29.9000000000   15.6590000000   23.5190000000
C     28.9710000000   14.2790000000   22.8140000000
H     29.3130000000   13.3550000000   23.2860000000
H     27.9220000000   14.4860000000   23.0440000000
H     29.1240000000   14.3270000000   21.7330000000
O     31.3560000000   15.3180000000   23.5960000000
C     20.8570000000   22.1920000000   23.4110000000
H     19.7990000000   21.9190000000   23.3850000000
H     21.3740000000   22.2610000000   22.4510000000
H     21.4020000000   21.4840000000   24.0420000000
S     20.9140000000   23.7790000000   24.2730000000
C     22.7190000000   23.8100000000   24.3660000000
H     23.2120000000   23.1310000000   25.0660000000
H     23.1760000000   23.5360000000   23.4120000000
H     22.9450000000   24.8700000000   24.5040000000
O     20.5230000000   23.3980000000   25.6660000000
C     28.4460000000   26.7810000000   33.4140000000
H     28.4680000000   26.0010000000   34.1800000000
H     29.2440000000   27.5010000000   33.6100000000
H     27.4620000000   27.2320000000   33.2610000000
S     28.9460000000   25.9000000000   31.9180000000
C     29.1060000000   27.2160000000   30.6900000000
H     28.2490000000   27.8950000000   30.7130000000
H     30.0180000000   27.7540000000   30.9580000000
H     29.2180000000   26.7100000000   29.7280000000
O     27.5730000000   25.4760000000   31.4980000000
C     24.9710000000   17.6590000000   34.5180000000
H     24.3570000000   18.3300000000   35.1240000000
H     25.8070000000   17.2730000000   35.1060000000
H     25.3820000000   18.1860000000   33.6530000000
S     23.9220000000   16.3650000000   33.8180000000
C     25.2780000000   15.7010000000   32.8260000000
H     25.7340000000   16.5010000000   32.2370000000
H     26.0950000000   15.3750000000   33.4740000000
H     24.9290000000   14.8680000000   32.2100000000
O     23.0490000000   17.0570000000   32.8180000000
C     18.2360000000   13.8750000000   24.5240000000
H     18.1140000000   13.2840000000   23.6130000000
H     18.6150000000   13.2270000000   25.3180000000
H     17.2090000000   14.0720000000   24.8440000000
S     19.2130000000   15.3720000000   24.2630000000
C     18.7460000000   16.0560000000   25.8690000000
H     19.2630000000   17.0140000000   25.9760000000
H     17.6850000000   16.1710000000   26.1040000000
H     19.1140000000   15.3400000000   26.6080000000
O     18.5060000000   16.0610000000   23.1370000000
C     22.4030000000   14.4150000000   21.9820000000
H     22.3340000000   14.2220000000   20.9080000000
H     21.9490000000   15.3240000000   22.3830000000
H     23.4480000000   14.5540000000   22.2690000000
S     21.8030000000   12.9260000000   22.8130000000
C     20.2270000000   12.9460000000   21.9300000000
H     20.4760000000   12.6910000000   20.8970000000
H     19.5530000000   12.2010000000   22.3610000000
H     19.7380000000   13.9210000000   22.0020000000
O     21.4980000000   13.3380000000   24.2190000000
C     28.3690000000   16.2400000000   28.9100000000
H     27.5940000000   15.6540000000   28.4100000000
H     29.2820000000   16.1610000000   28.3150000000
H     28.4800000000   15.8060000000   29.9070000000
S     27.8490000000   17.9700000000   28.9650000000
C     29.4830000000   18.7220000000   29.1460000000
H     29.8340000000   18.1870000000   30.0320000000
H     30.0560000000   18.5560000000   28.2310000000
H     29.2290000000   19.7580000000   29.3860000000
O     27.3140000000   18.1010000000   30.3570000000
C     25.7370000000   22.1060000000   21.5970000000
H     25.2220000000   21.6760000000   20.7340000000
H     26.7250000000   21.6490000000   21.4980000000
H     25.1460000000   21.8480000000   22.4800000000
S     25.7750000000   23.8910000000   21.3210000000
C     26.0780000000   24.3400000000   23.0450000000
H     25.4390000000   23.6670000000   23.6230000000
H     27.1260000000   24.1790000000   23.3110000000
H     25.7140000000   25.3670000000   23.1300000000
O     24.2910000000   24.0830000000   21.3350000000
C     28.8490000000   26.6840000000   24.6980000000
H     27.8890000000   26.1860000000   24.8570000000
H     28.6630000000   27.5520000000   24.0600000000
H     29.5580000000   26.0700000000   24.1390000000
S     29.5600000000   27.0970000000   26.3070000000
C     31.2860000000   27.0290000000   25.7760000000
H     31.8670000000   27.2620000000   26.6720000000
H     31.4130000000   26.0050000000   25.4150000000
H     31.5450000000   27.7320000000   24.9800000000
O     29.4190000000   25.8480000000   27.1190000000
C     18.8570000000   20.4410000000   26.0100000000
H     19.5800000000   19.6560000000   25.7740000000
H     18.8870000000   21.2610000000   25.2890000000
H     19.1470000000   20.8420000000   26.9850000000
S     17.2460000000   19.6320000000   26.1320000000
C     16.4830000000   21.1570000000   26.7300000000
H     16.8700000000   21.6020000000   27.6510000000
H     16.5930000000   21.8260000000   25.8730000000
H     15.4460000000   20.8420000000   26.8730000000
O     17.2880000000   18.8060000000   27.3800000000
C     18.9730000000   17.1370000000   30.1080000000
H     19.9680000000   16.7070000000   30.2480000000
H     18.2160000000   16.3830000000   29.8820000000
H     19.0220000000   17.7990000000   29.2400000000
S     18.4460000000   18.2380000000   31.4410000000
C     19.9040000000   19.2660000000   31.7250000000
H     20.1850000000   19.8060000000   30.8170000000
H     19.6880000000   20.1030000000   32.3940000000
H     20.6670000000   18.6080000000   32.1500000000
O     18.4000000000   17.4550000000   32.7170000000
C     24.2490000000   17.1960000000   29.2800000000
H     24.6790000000   17.5220000000   30.2300000000
H     24.8660000000   16.6280000000   28.5790000000
H     23.8790000000   18.1080000000   28.8030000000
S     22.7600000000   16.2900000000   29.7550000000
C     23.7710000000   14.7990000000   29.6150000000
H     23.8650000000   14.5760000000   28.5490000000
H     24.6930000000   14.9820000000   30.1730000000
H     23.2140000000   13.9360000000   29.9880000000
O     21.9400000000   16.3370000000   28.5030000000
C     24.2340000000   22.5330000000   31.3230000000
H     24.9110000000   22.7240000000   30.4870000000
H     23.3430000000   23.1070000000   31.0540000000
H     24.6620000000   22.8670000000   32.2720000000
S     23.6610000000   20.8260000000   31.4710000000
C     25.2980000000   20.0650000000   31.3900000000
H     26.0910000000   20.5350000000   31.9790000000
H     25.0850000000   19.0400000000   31.7040000000
H     25.7140000000   20.0070000000   30.3810000000
O     23.2310000000   20.4300000000   30.0930000000
C     31.6510000000   19.1550000000   24.6020000000
H     30.8500000000   19.8820000000   24.7580000000
H     31.3590000000   18.1100000000   24.4770000000
H     32.3880000000   19.2160000000   25.4070000000
S     32.2870000000   19.6520000000   22.9860000000
C     33.4730000000   18.3100000000   22.7490000000
H     33.9250000000   18.3940000000   21.7570000000
H     34.1160000000   18.3600000000   23.6310000000
H     32.9100000000   17.3730000000   22.7800000000
O     33.1580000000   20.8050000000   23.3770000000
C     26.8680000000   17.6340000000   21.9310000000
H     26.2850000000   18.0690000000   22.7480000000
H     26.1680000000   17.1710000000   21.2300000000
H     27.5370000000   16.8580000000   22.3110000000
S     27.9530000000   18.8130000000   21.0960000000
C     28.9380000000   17.5380000000   20.2790000000
H     28.4240000000   16.5750000000   20.3290000000
H     29.0450000000   17.9440000000   19.2700000000
H     29.8700000000   17.4460000000   20.8430000000
O     28.7560000000   19.2750000000   22.2730000000
C     32.6290000000   14.4950000000   26.8180000000
H     32.0210000000   14.4140000000   25.9130000000
H     33.5610000000   13.9470000000   26.6580000000
H     32.0790000000   14.0390000000   27.6450000000
S     32.9150000000   16.2550000000   27.1090000000
C     33.8900000000   16.6720000000   25.6450000000
H     34.3800000000   17.6470000000   25.7020000000
H     34.6430000000   15.8810000000   25.6080000000
H     33.2460000000   16.5320000000   24.7730000000
O     33.9260000000   16.1150000000   28.2040000000
C     26.0060000000   27.2090000000   28.0900000000
H     26.6770000000   27.3570000000   28.9410000000
H     26.5450000000   27.2610000000   27.1410000000
H     25.1650000000   27.8950000000   27.9560000000
S     25.0590000000   25.6740000000   28.1910000000
C     26.5800000000   24.7150000000   28.3720000000
H     26.2960000000   23.6600000000   28.3660000000
H     27.2930000000   24.6960000000   27.5440000000
H     27.0260000000   25.0470000000   29.3140000000
O     24.7860000000   25.3750000000   26.7500000000
C     20.0180000000   23.1730000000   29.5280000000
H     19.4780000000   22.6920000000   28.7090000000
H     20.3700000000   22.4060000000   30.2220000000
H     19.3910000000   23.8020000000   30.1650000000
S     21.2940000000   24.2310000000   28.8090000000
C     22.4330000000   22.9800000000   28.1740000000
H     22.8550000000   22.3980000000   28.9970000000
H     21.8850000000   22.2720000000   27.5460000000
H     23.1610000000   23.5900000000   27.6330000000
O     21.9620000000   24.9010000000   29.9690000000
C     17.9450000000   19.2950000000   22.4370000000
H     18.8480000000   19.7820000000   22.0600000000
H     18.0720000000   18.9600000000   23.4700000000
H     17.6310000000   18.4000000000   21.8950000000
S     16.5900000000   20.4900000000   22.4700000000
C     16.9010000000   21.1000000000   20.7980000000
H     16.9570000000   20.2140000000   20.1610000000
H     16.0300000000   21.7180000000   20.5630000000
H     17.8410000000   21.6320000000   20.6280000000
O     17.1320000000   21.6090000000   23.3040000000
C     35.4110000000   23.3300000000   24.8010000000
H     36.3210000000   23.9000000000   24.6020000000
H     35.5460000000   22.4400000000   25.4220000000
H     34.9540000000   22.9090000000   23.9010000000
S     34.2240000000   24.3780000000   25.6710000000
C     32.8850000000   23.1650000000   25.6590000000
H     32.8560000000   22.9300000000   24.5910000000
H     33.1520000000   22.2940000000   26.2630000000
H     31.9560000000   23.6310000000   25.9950000000
O     33.8110000000   25.3220000000   24.5850000000
C     28.1510000000   22.0830000000   30.3930000000
H     28.0310000000   21.3550000000   29.5870000000
H     28.3550000000   21.5800000000   31.3410000000
H     27.2240000000   22.6620000000   30.3510000000
S     29.5870000000   23.0650000000   29.9050000000
C     29.6620000000   22.5790000000   28.1660000000
H     30.7120000000   22.7230000000   27.9020000000
H     29.5080000000   21.4990000000   28.0960000000
H     29.1310000000   23.2330000000   27.4690000000
O     30.7200000000   22.3580000000   30.5810000000
C     23.5010000000   15.7380000000   25.3660000000
H     23.3320000000   16.7850000000   25.6310000000
H     22.8440000000   15.4680000000   24.5360000000
H     23.1330000000   15.1620000000   26.2190000000
S     25.2430000000   15.5140000000   24.9410000000
C     25.1700000000   13.7090000000   24.8950000000
H     26.1000000000   13.2500000000   24.5520000000
H     24.8050000000   13.2640000000   25.8240000000
H     24.3510000000   13.5560000000   24.1880000000
O     26.0490000000   15.6900000000   26.1900000000
C     29.9000000000   22.4570000000   22.7440000000
H     30.3120000000   21.4570000000   22.8960000000
H     30.0730000000   23.0520000000   23.6450000000
H     28.8220000000   22.3830000000   22.5760000000
S     30.5770000000   23.2460000000   21.2660000000
C     32.1590000000   23.7030000000   22.0120000000
H     32.6800000000   24.3640000000   21.3160000000
H     31.9270000000   24.2590000000   22.9240000000
H     32.7600000000   22.8030000000   22.1660000000
O     29.8110000000   24.5300000000   21.1870000000
