292

C     23.5530000000   15.9340000000   28.6080000000
C     22.5530000000   15.5190000000   29.7000000000
C     22.7510000000   16.3400000000   30.9850000000
C     22.7970000000   17.8590000000   30.7500000000
C     23.6160000000   18.3110000000   29.5300000000
C     23.4860000000   17.4340000000   28.2740000000
H     22.0310000000   16.0390000000   31.7560000000
H     21.5690000000   15.6930000000   29.2470000000
H     24.5760000000   15.7250000000   28.9440000000
H     23.3390000000   15.3490000000   27.7050000000
H     21.8120000000   18.2340000000   30.4490000000
H     23.0430000000   18.3480000000   31.7010000000
H     23.2840000000   19.3180000000   29.2500000000
H     24.6500000000   18.4030000000   29.8860000000
H     22.4410000000   17.5370000000   27.9580000000
H     24.1510000000   17.6880000000   27.4390000000
H     23.7030000000   16.0560000000   31.4500000000
N     22.6700000000   14.0880000000   29.9750000000
H     23.5900000000   13.7340000000   30.2100000000
C     21.7750000000   13.1170000000   29.5800000000
H     22.2600000000   12.1270000000   29.5050000000
O     20.6540000000   13.3410000000   29.1600000000
C     24.6740000000   19.2250000000   23.8810000000
H     24.9590000000   18.9570000000   22.8610000000
H     25.5360000000   19.5750000000   24.4550000000
H     24.3820000000   18.2930000000   24.3720000000
S     23.2770000000   20.3610000000   24.0320000000
C     22.4160000000   19.6500000000   25.4530000000
H     21.6960000000   20.4200000000   25.7420000000
H     22.1070000000   18.6360000000   25.1860000000
H     23.2170000000   19.5990000000   26.1950000000
O     22.3840000000   19.9610000000   22.9000000000
C     16.8800000000   18.3020000000   32.5970000000
H     16.6050000000   19.1250000000   31.9320000000
H     16.8280000000   17.3760000000   32.0190000000
H     16.1700000000   18.3170000000   33.4280000000
S     18.4910000000   18.5740000000   33.3670000000
C     18.1490000000   20.0940000000   34.2820000000
H     17.8500000000   20.8470000000   33.5490000000
H     17.3350000000   19.9160000000   34.9900000000
H     18.9580000000   20.3190000000   34.9830000000
O     19.3350000000   19.1100000000   32.2530000000
C     22.5690000000   16.9760000000   21.0980000000
H     21.7120000000   17.3690000000   21.6520000000
H     23.4200000000   17.6610000000   21.1380000000
H     22.2270000000   16.9190000000   20.0620000000
S     23.0250000000   15.4250000000   21.9060000000
C     24.4220000000   14.9260000000   20.8740000000
H     25.0890000000   14.2190000000   21.3730000000
H     23.9650000000   14.6180000000   19.9290000000
H     24.9990000000   15.8430000000   20.7270000000
O     21.9460000000   14.4110000000   21.6840000000
C     24.8180000000   25.3820000000   31.6510000000
H     23.8460000000   25.4070000000   32.1510000000
H     25.5420000000   26.1570000000   31.9150000000
H     24.6370000000   25.3940000000   30.5740000000
S     25.6370000000   23.8300000000   32.0850000000
C     27.0170000000   24.0570000000   30.9410000000
H     27.7410000000   23.2490000000   31.0700000000
H     26.6220000000   24.0140000000   29.9230000000
H     27.5070000000   25.0290000000   31.0400000000
O     24.7550000000   22.9620000000   31.2420000000
C     29.9610000000   13.8820000000   25.0370000000
H     29.2380000000   13.9850000000   24.2240000000
H     30.8760000000   13.7320000000   24.4590000000
H     29.7660000000   12.9430000000   25.5630000000
S     29.8940000000   15.3180000000   26.1320000000
C     30.8490000000   14.3830000000   27.3480000000
H     31.6250000000   13.7590000000   26.8980000000
H     31.2480000000   14.9860000000   28.1680000000
H     30.1600000000   13.6240000000   27.7260000000
O     28.5050000000   15.3730000000   26.6870000000
C     26.1610000000   19.9090000000   32.0180000000
H     25.8810000000   19.6800000000   33.0490000000
H     25.5620000000   20.8060000000   31.8410000000
H     26.0960000000   19.0860000000   31.3010000000
S     27.8750000000   20.4800000000   31.9630000000
C     28.5290000000   19.1040000000   32.9350000000
H     27.7730000000   18.8540000000   33.6830000000
H     28.7320000000   18.2680000000   32.2610000000
H     29.3930000000   19.4700000000   33.4960000000
O     27.8860000000   21.6290000000   32.9220000000
C     24.4370000000   21.3810000000   34.5970000000
H     24.5380000000   21.9290000000   33.6570000000
H     23.9420000000   22.0520000000   35.3050000000
H     25.4030000000   21.0670000000   35.0010000000
S     23.1200000000   20.1440000000   34.5640000000
C     22.1300000000   21.2730000000   33.5580000000
H     22.4970000000   21.1820000000   32.5330000000
H     21.1030000000   20.9130000000   33.6670000000
H     22.1130000000   22.3310000000   33.8310000000
O     22.3770000000   20.2100000000   35.8620000000
C     24.2150000000   10.3560000000   31.5910000000
H     23.7180000000   10.3340000000   30.6180000000
H     25.2850000000   10.2560000000   31.3930000000
H     23.9550000000    9.4340000000   32.1160000000
S     23.9200000000   11.8330000000   32.5900000000
C     24.3160000000   11.1750000000   34.2250000000
H     23.9330000000   11.9380000000   34.9070000000
H     23.7750000000   10.2270000000   34.2880000000
H     25.3960000000   11.0440000000   34.3320000000
O     22.4410000000   12.0680000000   32.5890000000
C     21.3810000000   14.5310000000   25.3340000000
H     22.4120000000   14.5750000000   24.9730000000
H     20.5950000000   14.8060000000   24.6270000000
H     21.1470000000   15.2280000000   26.1420000000
S     21.0990000000   12.7730000000   25.6430000000
C     21.2380000000   12.1500000000   23.9530000000
H     20.7610000000   11.1670000000   23.9650000000
H     20.6370000000   12.9010000000   23.4340000000
H     22.2690000000   12.0750000000   23.5960000000
O     19.6200000000   12.5900000000   25.7780000000
C     30.6770000000   20.1600000000   27.5050000000
H     30.3000000000   20.9590000000   28.1480000000
H     31.7470000000   19.9340000000   27.5080000000
H     30.3260000000   20.3250000000   26.4830000000
S     29.9070000000   18.6520000000   28.1360000000
C     28.2140000000   19.2020000000   27.8260000000
H     27.5360000000   18.5020000000   28.3220000000
H     28.1800000000   20.1900000000   28.2920000000
H     28.0570000000   19.2580000000   26.7460000000
O     30.1520000000   18.7440000000   29.6100000000
C     18.9710000000   15.6080000000   30.6880000000
H     18.7860000000   16.0110000000   31.6870000000
H     19.9730000000   15.1810000000   30.5980000000
H     18.8750000000   16.3980000000   29.9390000000
S     17.6710000000   14.4150000000   30.2950000000
C     17.8270000000   14.4880000000   28.4960000000
H     17.2890000000   13.6760000000   28.0010000000
H     17.4530000000   15.4710000000   28.2000000000
H     18.8690000000   14.4710000000   28.1660000000
O     16.4780000000   15.2580000000   30.6220000000
C     21.4620000000   17.0500000000   34.8480000000
H     21.1060000000   17.9890000000   35.2790000000
H     22.5330000000   16.9080000000   35.0150000000
H     21.3180000000   17.1210000000   33.7660000000
S     20.6450000000   15.6000000000   35.5510000000
C     21.6230000000   14.2540000000   34.8470000000
H     21.3760000000   14.1060000000   33.7920000000
H     22.6700000000   14.4990000000   35.0390000000
H     21.3950000000   13.3570000000   35.4280000000
O     19.3850000000   15.4660000000   34.7530000000
C     27.9750000000   11.0810000000   32.6920000000
H     27.6980000000   10.2950000000   33.3990000000
H     27.8510000000   12.0580000000   33.1670000000
H     27.2210000000   10.9960000000   31.9050000000
S     29.5760000000   10.9200000000   31.8710000000
C     30.6210000000   11.3740000000   33.2740000000
H     30.3810000000   10.7420000000   34.1330000000
H     31.6450000000   11.3710000000   32.8940000000
H     30.2820000000   12.3930000000   33.4760000000
O     29.6730000000   11.9730000000   30.8110000000
C     23.0920000000    6.2330000000   32.1770000000
H     22.6940000000    5.7640000000   33.0810000000
H     22.5930000000    7.1850000000   31.9780000000
H     23.2050000000    5.6560000000   31.2560000000
S     24.7290000000    6.9030000000   32.5480000000
C     25.7050000000    5.4200000000   32.8820000000
H     25.8080000000    4.9010000000   31.9250000000
H     26.7220000000    5.7070000000   33.1630000000
H     25.3660000000    4.8300000000   33.7370000000
O     24.3860000000    7.4630000000   33.8940000000
C     17.5090000000   18.3420000000   25.8400000000
H     17.1550000000   17.8260000000   24.9450000000
H     17.3770000000   17.7680000000   26.7610000000
H     16.9820000000   19.2940000000   25.9370000000
S     19.2320000000   18.6750000000   25.4110000000
C     18.9320000000   19.2550000000   23.7260000000
H     18.1190000000   19.9700000000   23.8760000000
H     19.7980000000   19.8150000000   23.3640000000
H     18.7300000000   18.3960000000   23.0810000000
O     19.9040000000   17.3580000000   25.1780000000
C     19.2920000000   21.6040000000   28.7850000000
H     18.6730000000   21.2540000000   27.9550000000
H     18.7770000000   21.4380000000   29.7340000000
H     19.3450000000   22.6950000000   28.7600000000
S     20.9720000000   21.0150000000   28.4730000000
C     21.6350000000   21.4000000000   30.1090000000
H     21.1770000000   20.6980000000   30.8110000000
H     22.7230000000   21.2900000000   30.1030000000
H     21.2860000000   22.4120000000   30.3290000000
O     21.5110000000   22.0650000000   27.5520000000
C     26.8700000000   15.5180000000   35.8940000000
H     26.7360000000   14.4620000000   36.1400000000
H     27.7460000000   15.7050000000   35.2690000000
H     26.9170000000   16.0300000000   36.8590000000
S     25.4970000000   15.9720000000   34.8100000000
C     25.7150000000   14.7010000000   33.5440000000
H     26.6040000000   14.8940000000   32.9380000000
H     25.8580000000   13.7150000000   33.9940000000
H     24.8100000000   14.6210000000   32.9370000000
O     25.9870000000   17.2690000000   34.2460000000
C     17.0550000000   13.2250000000   35.6970000000
H     16.0330000000   13.1780000000   36.0800000000
H     17.5240000000   12.2790000000   35.9810000000
H     17.4790000000   14.0720000000   36.2430000000
S     16.9970000000   13.5020000000   33.9130000000
C     15.8980000000   14.9360000000   33.9030000000
H     15.1100000000   14.7810000000   34.6450000000
H     16.4820000000   15.8490000000   34.0470000000
H     15.5130000000   15.0160000000   32.8840000000
O     16.1390000000   12.3900000000   33.3940000000
C     28.7410000000   17.8060000000   21.9370000000
H     28.3240000000   18.3670000000   21.0980000000
H     29.8040000000   17.9690000000   22.1360000000
H     28.4770000000   16.7460000000   21.9350000000
S     27.8890000000   18.4940000000   23.3740000000
C     27.7800000000   20.2070000000   22.8070000000
H     26.8640000000   20.5110000000   22.2940000000
H     27.8410000000   20.7710000000   23.7410000000
H     28.7260000000   20.3920000000   22.2920000000
O     29.0500000000   18.6340000000   24.3090000000
C     25.0410000000   13.3470000000   24.4320000000
H     24.2300000000   13.6630000000   23.7710000000
H     25.6040000000   12.4960000000   24.0410000000
H     24.6470000000   13.1180000000   25.4260000000
S     26.2400000000   14.6860000000   24.6240000000
C     25.2340000000   15.6250000000   25.7960000000
H     24.2830000000   15.6380000000   25.2560000000
H     25.3110000000   15.0930000000   26.7470000000
H     25.6540000000   16.6110000000   26.0080000000
O     26.0060000000   15.5100000000   23.3960000000
C     16.3700000000   10.5940000000   25.5460000000
H     16.2740000000   10.5050000000   24.4600000000
H     15.3260000000   10.4950000000   25.8550000000
H     16.8390000000   11.5570000000   25.7640000000
S     17.1730000000    9.1610000000   26.2980000000
C     18.2980000000    9.0010000000   24.8930000000
H     18.9670000000    9.8640000000   24.8540000000
H     18.7780000000    8.0640000000   25.1870000000
H     17.7660000000    8.9150000000   23.9430000000
O     16.2420000000    8.0600000000   25.8930000000
C     20.8120000000    9.2090000000   31.2610000000
H     21.1380000000    8.3910000000   30.6130000000
H     21.5970000000    9.7580000000   31.7880000000
H     20.0870000000    8.8480000000   31.9940000000
S     19.7220000000   10.2490000000   30.2630000000
C     19.0650000000   11.1990000000   31.6530000000
H     19.6730000000   12.0410000000   31.9940000000
H     18.1000000000   11.6240000000   31.3660000000
H     18.9690000000   10.4630000000   32.4550000000
O     18.7400000000    9.1800000000   29.8980000000
C     16.0550000000   11.0000000000   29.7440000000
H     15.5830000000   10.7660000000   28.7860000000
H     15.8650000000   12.0470000000   29.9950000000
H     17.1290000000   10.8410000000   29.6140000000
S     15.3490000000    9.8160000000   30.9120000000
C     15.4020000000    8.5180000000   29.6560000000
H     15.1930000000    7.6540000000   30.2920000000
H     14.5970000000    8.6700000000   28.9330000000
H     16.3230000000    8.4490000000   29.0700000000
O     13.8820000000   10.1040000000   30.8310000000
C     24.7110000000   23.7720000000   27.5640000000
H     24.1270000000   23.7690000000   28.4880000000
H     25.7110000000   24.0810000000   27.8780000000
H     24.2350000000   24.5690000000   26.9860000000
S     24.7100000000   22.1740000000   26.7220000000
C     25.3500000000   21.3570000000   28.2010000000
H     25.6720000000   20.3680000000   27.8650000000
H     26.2090000000   21.9650000000   28.4960000000
H     24.6130000000   21.3620000000   29.0080000000
O     25.9470000000   22.1010000000   25.8820000000
C     26.5160000000    6.6400000000   29.1420000000
H     26.1950000000    6.6860000000   28.0990000000
H     27.3260000000    5.9060000000   29.1370000000
H     25.6780000000    6.3460000000   29.7790000000
S     27.0970000000    8.2930000000   29.5830000000
C     28.5080000000    8.2610000000   28.4550000000
H     29.3130000000    7.7970000000   29.0310000000
H     28.2530000000    7.6460000000   27.5880000000
H     28.7770000000    9.2750000000   28.1490000000
O     27.7550000000    8.1240000000   30.9170000000
C     27.4540000000   11.7660000000   28.7530000000
H     28.4580000000   12.0290000000   28.4100000000
H     27.3830000000   11.2860000000   29.7330000000
H     26.9000000000   11.1190000000   28.0680000000
S     26.4090000000   13.2390000000   28.7210000000
C     27.5350000000   14.3440000000   29.6020000000
H     28.2930000000   14.6710000000   28.8860000000
H     26.9880000000   15.2010000000   30.0050000000
H     28.0110000000   13.6860000000   30.3340000000
O     25.3400000000   12.8480000000   29.6930000000
C     22.3490000000    8.8650000000   26.0860000000
H     23.2430000000    8.7230000000   25.4730000000
H     21.9150000000    7.8670000000   26.1870000000
H     21.6400000000    9.5990000000   25.6940000000
S     22.9250000000    9.1890000000   27.7680000000
C     24.1790000000   10.4560000000   27.4710000000
H     24.9830000000   10.0630000000   26.8420000000
H     23.6360000000   11.2380000000   26.9350000000
H     24.6240000000   10.8000000000   28.4080000000
O     23.7760000000    8.0330000000   28.1920000000
