302

C     26.6900000000   20.4140000000   26.2420000000
C     27.5840000000   21.2500000000   27.1740000000
C     29.0070000000   20.7630000000   27.4930000000
C     29.7880000000   20.2490000000   26.2730000000
C     28.8540000000   19.2750000000   25.5350000000
C     27.4800000000   19.7920000000   25.0790000000
H     29.5020000000   21.6510000000   27.9050000000
H     27.6160000000   22.2330000000   26.6890000000
H     26.3060000000   19.6370000000   26.9150000000
H     25.8730000000   21.0160000000   25.8270000000
H     30.0630000000   21.1350000000   25.6870000000
H     30.6950000000   19.7080000000   26.5690000000
H     29.3790000000   18.9690000000   24.6220000000
H     28.7380000000   18.3470000000   26.1070000000
H     27.5480000000   20.5050000000   24.2480000000
H     26.8340000000   18.9460000000   24.8140000000
H     28.9600000000   19.9230000000   28.1960000000
N     26.8390000000   21.3780000000   28.4250000000
H     27.1530000000   20.8560000000   29.2350000000
C     25.8600000000   22.3070000000   28.7050000000
H     25.5340000000   22.3180000000   29.7610000000
O     25.5290000000   23.0760000000   27.8200000000
C     25.3110000000   28.4850000000   23.1340000000
H     26.0800000000   27.9450000000   23.6920000000
H     25.5340000000   28.3150000000   22.0770000000
H     25.2100000000   29.5650000000   23.2740000000
S     23.8140000000   27.5700000000   23.5640000000
C     22.7420000000   28.7610000000   22.7270000000
H     23.0430000000   29.7590000000   23.0530000000
H     22.8140000000   28.6470000000   21.6420000000
H     21.6870000000   28.5630000000   22.9320000000
O     23.6450000000   27.8510000000   25.0240000000
C     28.6140000000   22.7650000000   31.4660000000
H     29.5820000000   22.8530000000   30.9660000000
H     27.7310000000   22.8200000000   30.8250000000
H     28.4090000000   23.5050000000   32.2440000000
S     28.6440000000   21.2200000000   32.4030000000
C     30.3320000000   21.6040000000   32.9200000000
H     30.6190000000   20.7670000000   33.5610000000
H     30.8940000000   21.5290000000   31.9850000000
H     30.2960000000   22.4730000000   33.5810000000
O     28.9140000000   20.3750000000   31.1970000000
C     30.6080000000   25.1840000000   33.8230000000
H     31.4030000000   24.4920000000   34.1140000000
H     30.3900000000   25.9710000000   34.5490000000
H     29.6410000000   24.6920000000   33.6950000000
S     30.9280000000   26.1250000000   32.3140000000
C     29.3490000000   26.9970000000   32.2000000000
H     29.3220000000   27.5570000000   33.1380000000
H     29.2780000000   27.6840000000   31.3530000000
H     28.5380000000   26.2660000000   32.1390000000
O     30.6900000000   25.0930000000   31.2560000000
C     31.8130000000   23.2530000000   28.2740000000
H     31.3910000000   23.7110000000   27.3760000000
H     31.5850000000   22.1890000000   28.3760000000
H     31.4060000000   23.8050000000   29.1260000000
S     33.6190000000   23.2310000000   28.2550000000
C     33.9900000000   24.9910000000   28.4340000000
H     33.7610000000   25.3490000000   29.4410000000
H     35.0630000000   25.0980000000   28.2580000000
H     33.3740000000   25.6150000000   27.7810000000
O     33.9220000000   22.8090000000   26.8520000000
C     21.3150000000   22.1170000000   32.2410000000
H     21.0060000000   22.8860000000   31.5290000000
H     21.6680000000   22.6660000000   33.1170000000
H     22.0470000000   21.4420000000   31.7900000000
S     19.9350000000   21.0660000000   32.7480000000
C     20.9590000000   19.7810000000   33.4990000000
H     21.5250000000   20.1100000000   34.3740000000
H     20.3750000000   18.9150000000   33.8190000000
H     21.6470000000   19.5080000000   32.6950000000
O     19.4360000000   20.4570000000   31.4740000000
C     28.5670000000   13.1270000000   26.5190000000
H     28.8350000000   12.0860000000   26.7150000000
H     28.3460000000   13.5730000000   27.4920000000
H     27.7830000000   13.2730000000   25.7720000000
S     29.9760000000   13.9820000000   25.7770000000
C     30.8220000000   14.0340000000   27.3730000000
H     30.6790000000   13.0680000000   27.8630000000
H     31.8690000000   14.3010000000   27.2100000000
H     30.4060000000   14.8380000000   27.9860000000
O     29.4630000000   15.3520000000   25.4580000000
C     24.3680000000   18.2750000000   32.3310000000
H     24.7780000000   17.5660000000   33.0550000000
H     23.3050000000   18.5220000000   32.3940000000
H     24.4890000000   17.7940000000   31.3570000000
S     25.3870000000   19.7620000000   32.2120000000
C     25.2480000000   20.1300000000   33.9760000000
H     25.5140000000   19.1750000000   34.4360000000
H     25.8730000000   21.0000000000   34.1950000000
H     24.2090000000   20.2970000000   34.2730000000
O     24.4660000000   20.7740000000   31.6060000000
C     28.0960000000   25.5460000000   28.8080000000
H     28.8260000000   26.3390000000   28.6270000000
H     28.2880000000   25.2350000000   29.8380000000
H     28.2230000000   24.6740000000   28.1610000000
S     26.3990000000   26.1500000000   28.6600000000
C     26.4050000000   26.0780000000   26.8550000000
H     27.3050000000   26.5170000000   26.4170000000
H     26.4740000000   25.0190000000   26.5920000000
H     25.5430000000   26.6140000000   26.4490000000
O     26.4400000000   27.6370000000   28.8260000000
C     24.3630000000   22.1660000000   23.1970000000
H     24.8870000000   23.1260000000   23.1750000000
H     23.9340000000   22.1020000000   24.2000000000
H     24.9910000000   21.3280000000   22.8840000000
S     23.1200000000   22.6330000000   21.9710000000
C     22.2180000000   21.0810000000   22.1740000000
H     21.2820000000   21.0980000000   21.6090000000
H     22.7950000000   20.2170000000   21.8350000000
H     22.0470000000   20.8200000000   23.2210000000
O     23.7830000000   22.4620000000   20.6400000000
C     31.5990000000   15.7720000000   19.4370000000
H     30.6700000000   16.2900000000   19.6890000000
H     32.4080000000   16.4480000000   19.1500000000
H     31.3150000000   15.0260000000   18.6910000000
S     32.0080000000   14.7050000000   20.8370000000
C     31.8680000000   16.1320000000   21.9370000000
H     32.0480000000   15.7450000000   22.9430000000
H     32.6140000000   16.8730000000   21.6400000000
H     30.8320000000   16.4800000000   21.9090000000
O     33.4630000000   14.4800000000   20.5700000000
C     35.6980000000   18.7690000000   29.2240000000
H     35.4610000000   17.7950000000   28.7890000000
H     36.0580000000   18.5230000000   30.2260000000
H     34.8870000000   19.5020000000   29.1990000000
S     37.0720000000   19.4780000000   28.2900000000
C     36.1460000000   19.7140000000   26.7570000000
H     35.6320000000   20.6740000000   26.6670000000
H     36.7800000000   19.5430000000   25.8830000000
H     35.3850000000   18.9360000000   26.8620000000
O     37.8940000000   18.2470000000   28.0640000000
C     32.0290000000   17.5220000000   27.9190000000
H     32.2180000000   18.4750000000   27.4180000000
H     32.9710000000   17.2110000000   28.3760000000
H     31.7580000000   16.7500000000   27.1950000000
S     30.7840000000   17.6420000000   29.2230000000
C     31.5670000000   18.9680000000   30.1670000000
H     31.4660000000   19.9620000000   29.7240000000
H     31.1420000000   19.1300000000   31.1610000000
H     32.6300000000   18.7490000000   30.2980000000
O     30.8470000000   16.3340000000   29.9480000000
C     26.9680000000   24.3960000000   21.1360000000
H     27.9110000000   24.0270000000   20.7240000000
H     27.2970000000   24.8990000000   22.0490000000
H     26.2300000000   23.5930000000   21.1990000000
S     26.1580000000   25.5590000000   20.0150000000
C     27.4220000000   26.8470000000   20.1070000000
H     27.1210000000   27.8800000000   19.9180000000
H     27.8810000000   26.7490000000   21.0940000000
H     28.0720000000   26.6320000000   19.2540000000
O     25.1100000000   26.1320000000   20.9180000000
C     28.7940000000   24.5210000000   25.0010000000
H     28.4970000000   23.7040000000   25.6640000000
H     28.8860000000   25.4920000000   25.4960000000
H     28.1110000000   24.6580000000   24.1590000000
S     30.3440000000   23.9470000000   24.2710000000
C     30.2440000000   25.0600000000   22.8510000000
H     30.3760000000   26.1110000000   23.1190000000
H     30.9500000000   24.8190000000   22.0520000000
H     29.2260000000   25.0740000000   22.4540000000
O     29.8460000000   22.6590000000   23.6940000000
C     27.4270000000   16.4030000000   28.1380000000
H     26.8620000000   15.5470000000   27.7590000000
H     27.6060000000   17.0620000000   27.2850000000
H     28.3970000000   16.0000000000   28.4390000000
S     26.5620000000   17.4850000000   29.2980000000
C     27.1430000000   16.5300000000   30.7180000000
H     26.6620000000   15.5530000000   30.6330000000
H     28.2260000000   16.4080000000   30.6340000000
H     26.8620000000   17.0790000000   31.6210000000
O     25.1740000000   16.9510000000   29.1250000000
C     34.1930000000   23.9090000000   31.9960000000
H     35.2530000000   24.0790000000   31.7880000000
H     33.4580000000   24.1870000000   31.2360000000
H     33.8390000000   24.4150000000   32.8980000000
S     33.8770000000   22.1430000000   32.2140000000
C     35.3450000000   21.7070000000   33.1730000000
H     35.0650000000   22.0610000000   34.1690000000
H     35.4200000000   20.6160000000   33.1600000000
H     36.2640000000   22.1450000000   32.7760000000
O     34.0120000000   21.6540000000   30.8060000000
C     33.5340000000   21.7470000000   23.2970000000
H     34.5320000000   21.6290000000   23.7290000000
H     33.5010000000   22.0870000000   22.2590000000
H     32.9310000000   22.3480000000   23.9830000000
S     32.5940000000   20.2040000000   23.2660000000
C     33.2270000000   19.6070000000   24.8490000000
H     34.3130000000   19.6410000000   24.9650000000
H     32.7840000000   20.2800000000   25.5880000000
H     33.0600000000   18.5330000000   24.9640000000
O     33.1970000000   19.2020000000   22.3310000000
C     30.8510000000   19.7490000000   20.0320000000
H     31.8870000000   19.8130000000   19.6890000000
H     30.8100000000   19.2750000000   21.0160000000
H     30.2620000000   19.2740000000   19.2440000000
S     30.1850000000   21.3820000000   20.4250000000
C     28.6680000000   20.7790000000   21.2000000000
H     28.0820000000   20.2240000000   20.4630000000
H     28.9590000000   20.1050000000   22.0100000000
H     28.2290000000   21.7000000000   21.5920000000
O     29.7840000000   22.0510000000   19.1470000000
C     37.1930000000   15.8310000000   25.5630000000
H     37.9110000000   15.7500000000   24.7420000000
H     37.3020000000   16.8260000000   26.0030000000
H     37.1450000000   14.9930000000   26.2620000000
S     35.6070000000   15.9640000000   24.7060000000
C     35.7840000000   17.4150000000   23.6440000000
H     34.9010000000   17.4870000000   23.0040000000
H     35.7760000000   18.3090000000   24.2730000000
H     36.7570000000   17.3860000000   23.1460000000
O     34.6120000000   16.3450000000   25.7580000000
C     22.6790000000   25.5250000000   27.5780000000
H     23.4960000000   25.8350000000   28.2350000000
H     22.8390000000   24.5070000000   27.2140000000
H     22.3840000000   26.1480000000   26.7300000000
S     21.2530000000   25.2750000000   28.6590000000
C     21.4030000000   26.7660000000   29.6690000000
H     22.4290000000   26.7820000000   30.0450000000
H     21.3020000000   27.6990000000   29.1090000000
H     20.7480000000   26.6590000000   30.5380000000
O     21.6570000000   24.0680000000   29.4470000000
C     27.3070000000   16.3440000000   23.0210000000
H     28.3020000000   16.7670000000   23.1820000000
H     26.4800000000   17.0560000000   22.9580000000
H     27.1380000000   15.6510000000   23.8480000000
S     27.3730000000   15.4700000000   21.4400000000
C     28.3660000000   14.1020000000   22.0770000000
H     29.1590000000   14.5160000000   22.7050000000
H     27.6320000000   13.5930000000   22.7070000000
H     28.7860000000   13.5360000000   21.2420000000
O     28.3610000000   16.2870000000   20.6680000000
C     20.5030000000   20.4500000000   28.1170000000
H     21.0170000000   21.0090000000   28.9040000000
H     20.0640000000   21.1430000000   27.3940000000
H     19.7070000000   19.8390000000   28.5500000000
S     21.7660000000   19.5780000000   27.1630000000
C     23.0160000000   20.8470000000   27.4620000000
H     23.8520000000   20.5830000000   26.8090000000
H     22.6500000000   21.8420000000   27.1960000000
H     23.4190000000   20.7480000000   28.4730000000
O     21.3830000000   20.0180000000   25.7840000000
C     20.7190000000   23.3110000000   25.4290000000
H     19.8950000000   22.5930000000   25.4600000000
H     21.6590000000   22.7540000000   25.4480000000
H     20.6440000000   23.9310000000   26.3260000000
S     20.4660000000   24.3240000000   23.9540000000
C     18.8750000000   25.1130000000   24.2900000000
H     18.8460000000   25.7350000000   25.1880000000
H     18.5480000000   25.6890000000   23.4200000000
H     18.2860000000   24.2060000000   24.4500000000
O     20.0060000000   23.2400000000   23.0300000000
C     33.1550000000   27.1610000000   24.7740000000
H     33.2680000000   28.2460000000   24.7150000000
H     32.1780000000   26.8330000000   24.4080000000
H     33.1230000000   26.9160000000   25.8380000000
S     34.6070000000   26.4720000000   23.9470000000
C     34.1330000000   24.7280000000   23.9680000000
H     34.9370000000   24.1450000000   23.5120000000
H     33.8250000000   24.3740000000   24.9550000000
H     33.2730000000   24.6290000000   23.3010000000
O     35.6810000000   26.6650000000   24.9710000000
C     24.0620000000   24.5790000000   31.3450000000
H     24.6640000000   24.3760000000   30.4560000000
H     23.1610000000   23.9600000000   31.3410000000
H     23.6060000000   25.5730000000   31.3620000000
S     25.1170000000   24.4380000000   32.8050000000
C     23.8700000000   25.2070000000   33.8630000000
H     22.9310000000   24.6530000000   33.7830000000
H     24.3490000000   25.2940000000   34.8410000000
H     23.8330000000   26.2510000000   33.5420000000
O     26.1710000000   25.4980000000   32.7280000000
C     24.0400000000   16.9070000000   26.0130000000
H     23.4480000000   16.1240000000   26.4950000000
H     25.0820000000   16.6370000000   25.8270000000
H     23.9760000000   17.8380000000   26.5810000000
S     23.2290000000   17.1440000000   24.4160000000
C     21.7100000000   16.2400000000   24.7920000000
H     21.2400000000   16.6820000000   25.6750000000
H     21.0460000000   16.3610000000   23.9330000000
H     21.9310000000   15.1800000000   24.9380000000
O     23.9840000000   16.0890000000   23.6680000000
C     26.6630000000   16.7830000000   17.8250000000
H     26.9290000000   16.2630000000   18.7490000000
H     25.5810000000   16.6650000000   17.7230000000
H     27.2480000000   16.6180000000   16.9160000000
S     26.9140000000   18.5460000000   18.1270000000
C     25.6970000000   18.5940000000   19.4630000000
H     25.4830000000   19.6340000000   19.7230000000
H     24.8250000000   18.0490000000   19.0920000000
H     26.1130000000   18.0020000000   20.2820000000
O     26.2850000000   19.1650000000   16.9180000000
C     31.5420000000   28.1910000000   29.2680000000
H     31.9220000000   29.0510000000   29.8260000000
H     30.6870000000   27.7210000000   29.7600000000
H     32.2900000000   27.3950000000   29.2220000000
S     31.1230000000   28.5530000000   27.5480000000
C     29.4640000000   29.1980000000   27.8590000000
H     29.0330000000   29.4830000000   26.8960000000
H     28.8210000000   28.4020000000   28.2440000000
H     29.5510000000   30.0700000000   28.5130000000
O     30.7940000000   27.1660000000   27.0910000000
