332

C     30.1070000000   25.8830000000   27.1340000000
C     29.7860000000   27.1870000000   27.8820000000
C     30.1380000000   27.0790000000   29.3750000000
C     31.5750000000   26.5750000000   29.5890000000
C     31.9500000000   25.4070000000   28.6620000000
C     31.6240000000   25.6370000000   27.1770000000
H     29.9170000000   28.0250000000   29.8850000000
H     30.4770000000   27.9410000000   27.4850000000
H     29.4400000000   25.0700000000   27.4440000000
H     29.8990000000   26.1290000000   26.0860000000
H     32.3560000000   27.3190000000   29.3910000000
H     31.6930000000   26.4290000000   30.6700000000
H     32.9880000000   25.1480000000   28.9020000000
H     31.2950000000   24.5600000000   28.9030000000
H     32.1780000000   26.4170000000   26.6420000000
H     31.7450000000   24.7090000000   26.6050000000
H     29.4280000000   26.3720000000   29.8200000000
N     28.4150000000   27.6250000000   27.6280000000
H     27.6550000000   26.9630000000   27.7270000000
C     27.9800000000   28.8720000000   27.2310000000
H     26.8870000000   29.0230000000   27.1610000000
O     28.7140000000   29.8430000000   27.1740000000
C     24.9500000000   30.0650000000   22.3840000000
H     25.6730000000   29.8670000000   21.5890000000
H     25.3900000000   29.5950000000   23.2670000000
H     23.9720000000   29.6340000000   22.1540000000
S     24.6690000000   31.7840000000   22.8650000000
C     24.2890000000   32.3120000000   21.1790000000
H     24.9190000000   31.6920000000   20.5360000000
H     23.2240000000   32.1890000000   20.9650000000
H     24.4950000000   33.3850000000   21.1650000000
O     25.9890000000   32.2540000000   23.3930000000
C     32.7560000000   31.7200000000   26.6830000000
H     31.8920000000   32.3690000000   26.8460000000
H     33.5300000000   32.2750000000   26.1470000000
H     32.4270000000   30.7940000000   26.2050000000
S     33.3710000000   31.1080000000   28.2680000000
C     31.9320000000   30.0800000000   28.6410000000
H     31.0840000000   30.7380000000   28.4350000000
H     31.8600000000   29.2370000000   27.9490000000
H     32.0750000000   29.7050000000   29.6580000000
O     33.0950000000   32.3190000000   29.1040000000
C     24.6750000000   26.2680000000   31.4630000000
H     24.3110000000   27.2490000000   31.7790000000
H     24.0560000000   25.9670000000   30.6140000000
H     24.6520000000   25.6130000000   32.3380000000
S     26.3710000000   26.6810000000   30.9950000000
C     27.2320000000   25.6330000000   32.1890000000
H     28.2690000000   25.8750000000   32.4360000000
H     26.8250000000   25.7060000000   33.2000000000
H     27.1250000000   24.5820000000   31.9080000000
O     26.4350000000   27.9790000000   31.7370000000
C     29.6320000000   33.2170000000   23.5870000000
H     29.2260000000   33.8900000000   24.3460000000
H     28.8610000000   32.9090000000   22.8760000000
H     30.1760000000   32.4110000000   24.0860000000
S     30.7470000000   34.1580000000   22.5210000000
C     32.2440000000   33.8060000000   23.4710000000
H     32.0730000000   33.7860000000   24.5500000000
H     32.6380000000   32.8340000000   23.1640000000
H     33.0170000000   34.5660000000   23.3370000000
O     30.4930000000   35.5810000000   22.9100000000
C     31.0890000000   28.8930000000   23.4510000000
H     31.0490000000   29.9830000000   23.3740000000
H     31.1990000000   28.4800000000   24.4560000000
H     31.9620000000   28.6340000000   22.8470000000
S     29.5520000000   28.4010000000   22.6370000000
C     28.4640000000   29.4380000000   23.6400000000
H     28.8210000000   29.1910000000   24.6430000000
H     28.5420000000   30.4720000000   23.2950000000
H     27.4400000000   29.0580000000   23.5960000000
O     29.2960000000   27.0110000000   23.1330000000
C     35.9440000000   22.5390000000   32.4120000000
H     35.0940000000   22.1600000000   32.9850000000
H     36.5800000000   21.7690000000   31.9670000000
H     36.6440000000   23.2420000000   32.8710000000
S     35.2740000000   23.5680000000   31.0870000000
C     34.3280000000   22.2720000000   30.2570000000
H     33.5570000000   22.0150000000   30.9870000000
H     33.8520000000   22.6030000000   29.3300000000
H     34.9390000000   21.4260000000   29.9310000000
O     36.4370000000   23.6260000000   30.1450000000
C     28.0270000000   35.1620000000   31.9140000000
H     27.3710000000   36.0370000000   31.9010000000
H     27.5270000000   34.1910000000   31.9700000000
H     28.6910000000   35.2460000000   32.7780000000
S     29.1770000000   35.0810000000   30.5230000000
C     30.4620000000   34.0610000000   31.2820000000
H     30.8280000000   34.5910000000   32.1650000000
H     30.0360000000   33.0650000000   31.4290000000
H     31.3120000000   34.0770000000   30.5950000000
O     29.7740000000   36.4520000000   30.6000000000
C     30.6730000000   22.2550000000   31.3240000000
H     31.0290000000   23.2450000000   31.6210000000
H     31.1720000000   21.6820000000   30.5380000000
H     29.6550000000   22.4580000000   30.9820000000
S     30.5810000000   21.2580000000   32.8280000000
C     29.7240000000   22.3510000000   33.9840000000
H     30.0980000000   23.3660000000   34.1380000000
H     28.6960000000   22.4940000000   33.6390000000
H     29.6030000000   21.7700000000   34.9020000000
O     31.9770000000   21.3730000000   33.3570000000
C     27.2010000000   23.0960000000   28.9670000000
H     28.1460000000   22.6170000000   28.6990000000
H     26.8530000000   23.5900000000   28.0560000000
H     27.3480000000   23.6670000000   29.8880000000
S     25.9390000000   21.8830000000   29.4150000000
C     24.5750000000   23.0550000000   29.5960000000
H     24.1880000000   23.0120000000   30.6170000000
H     24.9640000000   24.0680000000   29.4680000000
H     23.7900000000   22.9060000000   28.8510000000
O     26.2650000000   21.4910000000   30.8220000000
C     39.4660000000   29.7490000000   27.5410000000
H     40.0500000000   29.9210000000   26.6340000000
H     40.0420000000   29.8740000000   28.4610000000
H     39.0570000000   28.7370000000   27.4830000000
S     37.9610000000   30.7420000000   27.4310000000
C     38.6460000000   32.0860000000   28.4250000000
H     38.8050000000   31.7940000000   29.4660000000
H     39.6020000000   32.4190000000   28.0130000000
H     37.8870000000   32.8720000000   28.4060000000
O     37.0140000000   30.1460000000   28.4260000000
C     29.1250000000   23.3330000000   23.1990000000
H     29.9850000000   23.1270000000   23.8410000000
H     28.9500000000   24.4030000000   23.0600000000
H     28.1990000000   22.9790000000   23.6600000000
S     29.2570000000   22.5900000000   21.5570000000
C     29.4270000000   20.8710000000   22.0870000000
H     28.5140000000   20.3850000000   22.4380000000
H     29.8670000000   20.2160000000   21.3300000000
H     30.1150000000   20.7630000000   22.9300000000
O     30.6150000000   22.9430000000   21.0350000000
C     39.9510000000   24.7440000000   29.8370000000
H     41.0160000000   24.5090000000   29.9160000000
H     39.5910000000   25.3800000000   30.6500000000
H     39.3430000000   23.8370000000   29.8650000000
S     39.5040000000   25.5400000000   28.2770000000
C     39.9100000000   24.1040000000   27.2570000000
H     39.1230000000   23.3460000000   27.2370000000
H     39.9870000000   24.4930000000   26.2390000000
H     40.8060000000   23.6360000000   27.6730000000
O     40.7070000000   26.4210000000   28.1420000000
C     28.9220000000   20.5920000000   26.1780000000
H     28.8340000000   19.9700000000   25.2830000000
H     28.8130000000   19.9840000000   27.0790000000
H     28.2560000000   21.4590000000   26.1870000000
S     30.5770000000   21.3150000000   26.2260000000
C     31.5050000000   19.8560000000   26.7510000000
H     32.3940000000   20.0610000000   27.3530000000
H     30.8360000000   19.1080000000   27.1850000000
H     31.8190000000   19.2760000000   25.8800000000
O     30.4590000000   21.9540000000   27.5740000000
C     33.0670000000   24.6870000000   33.7980000000
H     32.9730000000   24.4870000000   34.8690000000
H     32.8020000000   23.8150000000   33.1950000000
H     34.1210000000   24.9510000000   33.6730000000
S     31.8710000000   25.9620000000   33.3410000000
C     32.5010000000   27.2550000000   34.4340000000
H     32.0600000000   27.1330000000   35.4270000000
H     33.5920000000   27.2080000000   34.4750000000
H     32.1540000000   28.1630000000   33.9350000000
O     30.4870000000   25.6180000000   33.7970000000
C     35.5870000000   27.4230000000   25.3290000000
H     35.3360000000   26.3900000000   25.0730000000
H     36.5420000000   27.7190000000   24.8870000000
H     35.5590000000   27.5190000000   26.4170000000
S     34.3190000000   28.5680000000   24.7400000000
C     35.2470000000   30.0370000000   25.2370000000
H     35.2220000000   30.0980000000   26.3280000000
H     36.2800000000   29.8700000000   24.9230000000
H     34.6820000000   30.8880000000   24.8460000000
O     33.2110000000   28.4180000000   25.7350000000
C     19.4570000000   31.9070000000   28.4640000000
H     19.1220000000   32.5770000000   29.2600000000
H     19.5200000000   32.4930000000   27.5430000000
H     18.7280000000   31.0960000000   28.3890000000
S     21.1220000000   31.2370000000   28.6740000000
C     20.8210000000   30.1920000000   30.1170000000
H     20.2840000000   30.7280000000   30.9030000000
H     20.2800000000   29.2670000000   29.9030000000
H     21.8360000000   29.9290000000   30.4260000000
O     21.7600000000   32.4340000000   29.3080000000
C     24.3850000000   24.6220000000   26.0220000000
H     23.5330000000   25.0110000000   26.5860000000
H     24.0450000000   24.3930000000   25.0080000000
H     24.8630000000   23.7190000000   26.4100000000
S     25.5390000000   26.0120000000   25.9970000000
C     26.8060000000   25.1380000000   25.0520000000
H     26.9540000000   24.1110000000   25.3960000000
H     26.5180000000   25.0100000000   24.0050000000
H     27.7540000000   25.6780000000   25.1250000000
O     26.1360000000   25.9800000000   27.3690000000
C     33.0090000000   31.1730000000   35.9070000000
H     32.5030000000   30.2870000000   35.5150000000
H     32.6870000000   31.3590000000   36.9340000000
H     32.8010000000   32.0810000000   35.3350000000
S     34.7470000000   30.6780000000   35.8980000000
C     34.8000000000   30.4680000000   34.1040000000
H     34.5000000000   31.3760000000   33.5740000000
H     35.8650000000   30.2780000000   33.9500000000
H     34.2400000000   29.5910000000   33.7700000000
O     34.5310000000   29.3440000000   36.5420000000
C     27.9840000000   28.0450000000   35.8400000000
H     27.8040000000   27.6460000000   36.8410000000
H     28.7720000000   27.5430000000   35.2730000000
H     28.2760000000   29.0950000000   35.9290000000
S     26.3800000000   27.8460000000   35.0310000000
C     25.4740000000   29.2270000000   35.7630000000
H     24.3940000000   29.1550000000   35.6100000000
H     25.5510000000   29.1360000000   36.8500000000
H     25.8410000000   30.2270000000   35.5150000000
O     25.6980000000   26.7100000000   35.7280000000
C     32.1900000000   25.6380000000   23.6170000000
H     32.8760000000   25.1660000000   24.3240000000
H     31.8780000000   26.5290000000   24.1660000000
H     31.4290000000   24.9580000000   23.2240000000
S     33.0110000000   25.9310000000   22.0340000000
C     33.5260000000   24.2210000000   21.7610000000
H     33.9700000000   24.0860000000   20.7720000000
H     34.2220000000   23.9030000000   22.5400000000
H     32.5240000000   23.7910000000   21.8390000000
O     34.2960000000   26.5860000000   22.4340000000
C     25.5100000000   31.7940000000   33.1220000000
H     25.8690000000   30.8120000000   33.4400000000
H     26.3600000000   32.4320000000   32.8670000000
H     24.9220000000   32.1610000000   33.9670000000
S     24.3310000000   31.5100000000   31.7820000000
C     23.9590000000   33.2740000000   31.6560000000
H     23.0940000000   33.4180000000   31.0040000000
H     23.7630000000   33.7740000000   32.6080000000
H     24.8490000000   33.7290000000   31.2140000000
O     23.0620000000   31.0160000000   32.4050000000
C     36.2330000000   23.6320000000   27.0050000000
H     36.3550000000   23.1560000000   27.9820000000
H     37.0040000000   23.1580000000   26.3930000000
H     36.3300000000   24.7080000000   27.1660000000
S     34.6670000000   23.0000000000   26.3600000000
C     35.1930000000   21.2920000000   26.0940000000
H     36.2140000000   21.0450000000   25.7930000000
H     34.9890000000   20.8130000000   27.0550000000
H     34.4330000000   20.9920000000   25.3680000000
O     34.6630000000   23.6470000000   25.0100000000
C     24.2790000000   28.9610000000   29.3970000000
H     23.6640000000   29.8630000000   29.3470000000
H     24.2750000000   28.6530000000   30.4460000000
H     25.2890000000   29.1110000000   29.0060000000
S     23.4320000000   27.6050000000   28.5560000000
C     23.2180000000   28.5610000000   27.0380000000
H     24.1830000000   28.8710000000   26.6290000000
H     22.6380000000   27.8420000000   26.4550000000
H     22.6090000000   29.4530000000   27.2080000000
O     22.0860000000   27.6520000000   29.2100000000
C     27.2740000000   32.9400000000   26.9860000000
H     28.0430000000   33.3300000000   27.6590000000
H     27.7050000000   32.3210000000   26.1950000000
H     26.9000000000   33.8090000000   26.4390000000
S     25.9690000000   32.1270000000   27.9340000000
C     24.5760000000   32.2700000000   26.7930000000
H     24.9470000000   31.9520000000   25.8160000000
H     23.8170000000   31.5610000000   27.1350000000
H     24.3360000000   33.3360000000   26.8140000000
O     25.5420000000   33.1230000000   28.9670000000
C     20.0930000000   31.8420000000   24.4550000000
H     19.3460000000   32.0630000000   23.6880000000
H     19.6570000000   31.2830000000   25.2870000000
H     20.5500000000   32.7820000000   24.7750000000
S     21.4900000000   31.0070000000   23.6710000000
C     20.6230000000   29.4240000000   23.5920000000
H     20.1310000000   29.4510000000   24.5680000000
H     19.8550000000   29.4020000000   22.8140000000
H     21.2740000000   28.5570000000   23.4620000000
O     22.4700000000   30.7560000000   24.7740000000
C     21.5730000000   26.4250000000   21.5200000000
H     22.2610000000   26.9460000000   20.8500000000
H     21.1410000000   25.5330000000   21.0590000000
H     20.7470000000   27.0850000000   21.7980000000
S     22.5180000000   25.8170000000   22.9350000000
C     21.0520000000   25.5270000000   23.9510000000
H     20.4930000000   24.7040000000   23.5010000000
H     21.4530000000   25.2340000000   24.9250000000
H     20.4630000000   26.4480000000   23.9560000000
O     23.2080000000   26.9830000000   23.5730000000
C     24.4550000000   21.0260000000   23.3700000000
H     24.5240000000   21.9440000000   22.7810000000
H     23.9540000000   20.2670000000   22.7630000000
H     23.8910000000   21.2470000000   24.2800000000
S     26.0960000000   20.5880000000   23.9880000000
C     25.5480000000   19.0520000000   24.7680000000
H     24.4900000000   19.0860000000   25.0390000000
H     25.6020000000   18.3540000000   23.9300000000
H     26.2170000000   18.7190000000   25.5660000000
O     26.2640000000   21.5570000000   25.1160000000
C     28.9890000000   19.5350000000   29.9130000000
H     29.8120000000   18.8640000000   30.1730000000
H     29.3220000000   20.3410000000   29.2540000000
H     28.4340000000   19.8890000000   30.7850000000
S     27.7360000000   18.6000000000   29.0080000000
C     27.6130000000   17.1970000000   30.1400000000
H     26.7500000000   16.5910000000   29.8500000000
H     28.4650000000   16.5430000000   29.9350000000
H     27.3590000000   17.5610000000   31.1380000000
O     28.3930000000   17.9670000000   27.8210000000
C     29.8400000000   29.4130000000   32.3860000000
H     30.1940000000   29.1190000000   33.3780000000
H     29.3630000000   28.5280000000   31.9560000000
H     30.5310000000   29.8880000000   31.6850000000
S     28.3880000000   30.4590000000   32.6300000000
C     28.1060000000   30.9060000000   30.9020000000
H     27.3500000000   31.6540000000   30.6500000000
H     29.0680000000   31.1650000000   30.4530000000
H     27.8610000000   29.9550000000   30.4220000000
O     28.9310000000   31.7110000000   33.2450000000
C     26.2280000000   24.4310000000   19.5320000000
H     25.8940000000   23.4410000000   19.2130000000
H     25.8860000000   25.1600000000   18.7920000000
H     27.3110000000   24.2920000000   19.5770000000
S     25.5570000000   24.8280000000   21.1620000000
C     26.5970000000   26.2370000000   21.6100000000
H     26.4720000000   27.0760000000   20.9200000000
H     26.0940000000   26.5680000000   22.5220000000
H     27.5990000000   25.8250000000   21.7560000000
O     26.0760000000   23.8190000000   22.1390000000
C     35.7020000000   26.8310000000   29.4590000000
H     35.9090000000   25.7580000000   29.4710000000
H     34.7240000000   26.9850000000   28.9970000000
H     36.4430000000   27.3100000000   28.8130000000
S     35.7330000000   27.5230000000   31.1270000000
C     37.2280000000   26.6430000000   31.6310000000
H     38.1260000000   27.0060000000   31.1230000000
H     37.3800000000   26.9050000000   32.6810000000
H     37.0540000000   25.5690000000   31.5280000000
O     34.6700000000   26.8760000000   31.9590000000
