272

C     28.1860000000   24.5280000000   27.6270000000
C     27.2850000000   25.7480000000   27.3700000000
C     26.0010000000   25.4100000000   26.5940000000
C     25.2220000000   24.1830000000   27.0940000000
C     26.1390000000   22.9970000000   27.4350000000
C     27.4060000000   23.3490000000   28.2320000000
H     25.3430000000   26.2840000000   26.6680000000
H     26.9790000000   25.9940000000   28.3940000000
H     28.5870000000   24.2400000000   26.6480000000
H     29.0770000000   24.7830000000   28.2130000000
H     24.6710000000   24.3960000000   28.0190000000
H     24.5260000000   23.9710000000   26.2730000000
H     25.6060000000   22.1950000000   27.9590000000
H     26.5220000000   22.5020000000   26.5340000000
H     27.1110000000   23.6720000000   29.2380000000
H     28.1140000000   22.5160000000   28.3210000000
H     26.3080000000   25.3030000000   25.5460000000
N     27.9630000000   26.9580000000   26.9080000000
H     28.3030000000   27.0090000000   25.9550000000
C     28.2230000000   28.0430000000   27.7180000000
H     28.9090000000   28.7890000000   27.2780000000
O     27.9060000000   28.1060000000   28.8930000000
C     24.6730000000   29.7580000000   24.9430000000
H     25.5460000000   29.6540000000   25.5920000000
H     23.9930000000   30.5070000000   25.3580000000
H     24.1070000000   28.8230000000   24.9460000000
S     25.0860000000   30.1960000000   23.2390000000
C     26.3380000000   31.4010000000   23.7310000000
H     26.7540000000   31.8160000000   22.8090000000
H     25.9240000000   32.2230000000   24.3200000000
H     27.2140000000   31.0210000000   24.2630000000
O     23.9720000000   31.1020000000   22.8150000000
C     21.5140000000   25.8390000000   32.6850000000
H     22.4880000000   25.5390000000   32.2900000000
H     21.3290000000   25.2420000000   33.5820000000
H     20.6740000000   25.6900000000   32.0010000000
S     21.5480000000   27.5850000000   33.1460000000
C     22.6550000000   27.1610000000   34.5100000000
H     22.6800000000   28.0040000000   35.2050000000
H     22.1760000000   26.3720000000   35.0940000000
H     23.6490000000   26.9330000000   34.1160000000
O     20.2060000000   27.9080000000   33.7260000000
C     26.3570000000   27.4200000000   33.8900000000
H     26.7550000000   26.4420000000   34.1720000000
H     27.0760000000   28.1220000000   34.3200000000
H     25.4860000000   27.6360000000   34.5140000000
S     26.0350000000   27.5970000000   32.1210000000
C     26.1900000000   29.3910000000   31.9730000000
H     25.9620000000   29.7440000000   30.9630000000
H     25.4540000000   29.8550000000   32.6340000000
H     27.2300000000   29.6760000000   32.1520000000
O     24.5930000000   27.2560000000   31.9080000000
C     35.2350000000   24.2560000000   32.5860000000
H     36.0590000000   24.9010000000   32.9000000000
H     35.6120000000   23.2350000000   32.6830000000
H     34.9010000000   24.4290000000   31.5600000000
S     33.8710000000   24.5840000000   33.7260000000
C     32.7010000000   23.6970000000   32.6740000000
H     32.7320000000   22.6150000000   32.8300000000
H     31.7900000000   24.1430000000   33.0820000000
H     32.8500000000   23.9890000000   31.6310000000
O     33.4250000000   25.9440000000   33.2880000000
C     34.4680000000   32.4230000000   29.6250000000
H     34.2000000000   33.2950000000   30.2280000000
H     35.5060000000   32.4540000000   29.2850000000
H     33.7800000000   32.3270000000   28.7810000000
S     34.4580000000   30.8740000000   30.5550000000
C     34.3870000000   29.7060000000   29.1780000000
H     34.2250000000   28.7130000000   29.6060000000
H     33.5610000000   29.9840000000   28.5180000000
H     35.2970000000   29.7890000000   28.5790000000
O     33.0420000000   30.9380000000   31.0360000000
C     30.7060000000   16.1630000000   24.1390000000
H     30.7510000000   16.2020000000   23.0480000000
H     31.5690000000   15.6770000000   24.6020000000
H     29.7650000000   15.7100000000   24.4590000000
S     30.5200000000   17.8350000000   24.7990000000
C     31.7790000000   18.5850000000   23.7410000000
H     31.9500000000   19.6430000000   23.9550000000
H     32.6820000000   17.9970000000   23.9220000000
H     31.4920000000   18.4170000000   22.7000000000
O     31.1820000000   17.5980000000   26.1200000000
C     29.6510000000   22.4050000000   31.1520000000
H     30.1240000000   23.3580000000   30.9040000000
H     28.8710000000   22.0630000000   30.4660000000
H     29.2920000000   22.4630000000   32.1830000000
S     30.8110000000   21.0320000000   30.9600000000
C     31.0010000000   21.2420000000   29.1760000000
H     29.9940000000   21.2260000000   28.7500000000
H     31.5060000000   22.1990000000   29.0210000000
H     31.6160000000   20.5430000000   28.6040000000
O     29.8870000000   19.8540000000   30.9790000000
C     25.0020000000   24.0740000000   31.7670000000
H     24.1970000000   23.3450000000   31.8860000000
H     24.7110000000   25.0150000000   32.2430000000
H     25.0930000000   24.2170000000   30.6880000000
S     26.5450000000   23.3250000000   32.3360000000
C     26.2240000000   21.7000000000   31.6140000000
H     25.4780000000   21.1500000000   32.1940000000
H     25.8220000000   21.8820000000   30.6130000000
H     27.1310000000   21.1080000000   31.4670000000
O     26.0670000000   23.1920000000   33.7480000000
C     20.8420000000   23.4690000000   25.5020000000
H     20.0190000000   22.8390000000   25.8490000000
H     20.5870000000   23.8060000000   24.4940000000
H     21.8040000000   22.9610000000   25.6070000000
S     20.7950000000   25.0380000000   26.3980000000
C     20.7640000000   24.5020000000   28.1240000000
H     20.5160000000   23.4420000000   28.2210000000
H     21.7430000000   24.6870000000   28.5720000000
H     20.0730000000   25.1400000000   28.6800000000
O     19.3750000000   25.4420000000   26.1480000000
C     36.8450000000   24.0530000000   29.2810000000
H     37.1050000000   24.9160000000   28.6630000000
H     36.7880000000   24.3860000000   30.3210000000
H     37.5880000000   23.2740000000   29.0930000000
S     35.2680000000   23.3730000000   28.7190000000
C     35.1850000000   22.0810000000   29.9800000000
H     35.2130000000   22.3590000000   31.0370000000
H     34.3360000000   21.4760000000   29.6530000000
H     35.9940000000   21.3950000000   29.7160000000
O     35.6170000000   22.6310000000   27.4670000000
C     32.7520000000   27.1180000000   25.9330000000
H     32.0510000000   27.9320000000   26.1390000000
H     33.6500000000   27.1570000000   26.5550000000
H     33.1260000000   27.1180000000   24.9060000000
S     31.6850000000   25.6760000000   26.1510000000
C     33.0650000000   24.5260000000   25.9550000000
H     33.2830000000   24.4300000000   24.8880000000
H     33.9220000000   24.9430000000   26.4900000000
H     32.9590000000   23.5710000000   26.4760000000
O     30.8420000000   25.6270000000   24.9160000000
C     30.2350000000   29.8370000000   24.8310000000
H     30.9180000000   29.8550000000   23.9780000000
H     29.9910000000   28.8770000000   25.2940000000
H     29.2850000000   30.2550000000   24.4880000000
S     30.8820000000   30.9850000000   26.0680000000
C     31.6920000000   32.1270000000   24.9260000000
H     32.2490000000   32.8830000000   25.4850000000
H     32.3940000000   31.6020000000   24.2730000000
H     30.9420000000   32.7120000000   24.3870000000
O     31.9400000000   30.1680000000   26.7410000000
C     27.9710000000   27.6860000000   21.4940000000
H     28.2980000000   28.7250000000   21.4020000000
H     28.4040000000   27.0940000000   20.6840000000
H     26.8830000000   27.6460000000   21.4030000000
S     28.4750000000   27.0560000000   23.1110000000
C     27.5980000000   25.4830000000   23.2610000000
H     27.9680000000   24.7560000000   22.5350000000
H     27.9910000000   25.1710000000   24.2320000000
H     26.5170000000   25.5350000000   23.1090000000
O     27.7130000000   27.9680000000   24.0220000000
C     21.8750000000   19.8320000000   23.3970000000
H     21.8820000000   18.9520000000   22.7480000000
H     22.4730000000   20.5670000000   22.8530000000
H     22.0870000000   19.6640000000   24.4560000000
S     20.2510000000   20.6250000000   23.4300000000
C     19.3610000000   19.2490000000   24.1900000000
H     19.4820000000   18.4450000000   23.4590000000
H     19.8190000000   18.9910000000   25.1490000000
H     18.3440000000   19.5900000000   24.3980000000
O     19.8190000000   20.5260000000   22.0000000000
C     26.0030000000   31.7060000000   29.0000000000
H     25.7860000000   32.1990000000   29.9500000000
H     25.0360000000   31.3960000000   28.5960000000
H     26.6710000000   30.8450000000   29.0830000000
S     26.7340000000   33.0140000000   27.9890000000
C     25.2000000000   33.9220000000   27.6970000000
H     24.2670000000   33.3570000000   27.7710000000
H     25.1490000000   34.6510000000   28.5100000000
H     25.2280000000   34.4040000000   26.7160000000
O     27.1630000000   32.2600000000   26.7690000000
C     22.2860000000   23.2040000000   21.6640000000
H     21.3840000000   23.4020000000   22.2480000000
H     22.1980000000   23.7320000000   20.7110000000
H     22.2810000000   22.1680000000   21.3140000000
S     23.6860000000   23.5950000000   22.7380000000
C     24.9520000000   22.6350000000   21.8780000000
H     24.5290000000   22.2670000000   20.9400000000
H     25.8950000000   23.1460000000   21.6680000000
H     25.2490000000   21.7450000000   22.4370000000
O     23.5050000000   22.6810000000   23.9100000000
C     24.4900000000   28.6550000000   28.4630000000
H     25.3470000000   29.3290000000   28.3950000000
H     24.7700000000   27.7650000000   29.0330000000
H     24.0250000000   28.3430000000   27.5240000000
S     23.2600000000   29.4590000000   29.5140000000
C     22.0850000000   28.0870000000   29.5570000000
H     22.1930000000   27.5670000000   30.5120000000
H     21.0240000000   28.3270000000   29.4560000000
H     22.5300000000   27.4710000000   28.7710000000
O     22.6870000000   30.5270000000   28.6350000000
C     23.0770000000   16.9920000000   28.6430000000
H     22.9560000000   17.9680000000   29.1200000000
H     22.9300000000   16.2310000000   29.4130000000
H     24.1310000000   16.8860000000   28.3710000000
S     22.0280000000   16.6860000000   27.2040000000
C     22.7840000000   15.1850000000   26.5410000000
H     22.2480000000   14.8900000000   25.6350000000
H     23.7920000000   15.5210000000   26.2840000000
H     22.8410000000   14.4080000000   27.3080000000
O     22.5410000000   17.6990000000   26.2290000000
C     24.9690000000   20.2970000000   25.4840000000
H     24.8310000000   21.3720000000   25.3470000000
H     23.9380000000   19.9450000000   25.5690000000
H     25.6480000000   20.1500000000   26.3280000000
S     25.5640000000   19.5350000000   23.9570000000
C     25.8010000000   17.8520000000   24.5720000000
H     24.8230000000   17.3930000000   24.7360000000
H     26.2200000000   17.3470000000   23.6980000000
H     26.3830000000   17.7290000000   25.4890000000
O     26.9720000000   20.0340000000   23.8630000000
C     22.2930000000   21.1310000000   27.5780000000
H     22.3830000000   20.0990000000   27.2290000000
H     21.2280000000   21.2660000000   27.7790000000
H     22.6680000000   21.8920000000   26.8890000000
S     23.0370000000   21.3000000000   29.2170000000
C     21.8740000000   20.4960000000   30.3420000000
H     22.0410000000   19.4190000000   30.2620000000
H     22.0480000000   20.6180000000   31.4140000000
H     20.8190000000   20.7470000000   30.2030000000
O     22.7720000000   22.7550000000   29.4480000000
C     21.4920000000   26.5190000000   22.9460000000
H     22.3850000000   26.8950000000   23.4520000000
H     20.6470000000   26.9730000000   23.4710000000
H     21.4130000000   25.4490000000   23.1560000000
S     21.4920000000   27.0680000000   21.2250000000
C     19.9090000000   26.3610000000   20.7130000000
H     19.6210000000   26.8310000000   19.7690000000
H     19.9840000000   25.2770000000   20.5970000000
H     19.0460000000   26.5880000000   21.3440000000
O     22.4570000000   26.1420000000   20.5510000000
C     29.3810000000   21.8350000000   25.2070000000
H     29.5920000000   22.2580000000   26.1920000000
H     28.3350000000   21.6100000000   24.9860000000
H     29.7330000000   20.8100000000   25.0600000000
S     30.0800000000   22.7700000000   23.8280000000
C     29.5230000000   21.7950000000   22.4120000000
H     29.6220000000   22.2990000000   21.4470000000
H     30.2450000000   20.9750000000   22.4110000000
H     28.5150000000   21.4460000000   22.6490000000
O     31.5410000000   22.4440000000   23.8150000000
C     27.9180000000   18.9580000000   27.7370000000
H     27.3830000000   18.9020000000   26.7850000000
H     28.0930000000   20.0230000000   27.9120000000
H     28.8500000000   18.3990000000   27.6310000000
S     26.9360000000   18.3710000000   29.1360000000
C     26.8370000000   16.6600000000   28.5660000000
H     26.3490000000   16.6520000000   27.5880000000
H     27.8520000000   16.2560000000   28.5960000000
H     26.2700000000   16.1710000000   29.3620000000
O     25.5640000000   18.8930000000   28.8440000000
C     29.6240000000   31.9640000000   29.3500000000
H     30.6760000000   31.7390000000   29.1580000000
H     28.8690000000   31.3220000000   28.8890000000
H     29.5000000000   33.0030000000   29.0320000000
S     29.3860000000   31.9270000000   31.1410000000
C     29.8570000000   30.2030000000   31.4100000000
H     29.3740000000   29.6210000000   30.6210000000
H     30.9270000000   30.0780000000   31.2260000000
H     29.6800000000   29.8070000000   32.4130000000
O     27.9050000000   31.9440000000   31.3650000000
C     29.6720000000   26.4760000000   31.0620000000
H     29.4630000000   25.6550000000   31.7520000000
H     29.5640000000   27.3880000000   31.6540000000
H     29.0030000000   26.3380000000   30.2080000000
S     31.3820000000   26.3210000000   30.4990000000
C     31.2720000000   27.5610000000   29.1890000000
H     30.6440000000   27.1290000000   28.4050000000
H     30.8930000000   28.5300000000   29.5230000000
H     32.2930000000   27.6350000000   28.8080000000
O     31.4400000000   25.0210000000   29.7580000000
