282

C     29.9140000000   28.4110000000   25.9030000000
C     28.4780000000   28.6670000000   26.3900000000
C     27.5530000000   27.4620000000   26.6240000000
C     28.2640000000   26.2960000000   27.3290000000
C     29.6670000000   26.0400000000   26.7530000000
C     30.5490000000   27.2990000000   26.7550000000
H     26.7020000000   27.7740000000   27.2420000000
H     28.6140000000   29.1140000000   27.3830000000
H     29.8890000000   28.1030000000   24.8510000000
H     30.5610000000   29.2910000000   25.8090000000
H     28.2610000000   26.5170000000   28.4040000000
H     27.6160000000   25.4200000000   27.1990000000
H     30.0790000000   25.2230000000   27.3570000000
H     29.5650000000   25.6230000000   25.7440000000
H     30.7990000000   27.6790000000   27.7530000000
H     31.5840000000   27.0980000000   26.4500000000
H     27.3010000000   26.9460000000   25.6890000000
N     27.8210000000   29.6650000000   25.5480000000
H     27.2920000000   29.2880000000   24.7710000000
C     27.7330000000   31.0050000000   25.8620000000
H     26.9560000000   31.5240000000   25.2720000000
O     28.3150000000   31.5000000000   26.8110000000
C     22.8270000000   34.0470000000   24.5200000000
H     21.9100000000   33.5130000000   24.2590000000
H     23.0750000000   33.8080000000   25.5570000000
H     22.7540000000   35.1300000000   24.3870000000
S     24.1970000000   33.3590000000   23.5640000000
C     23.7960000000   31.6390000000   23.9430000000
H     24.7590000000   31.1230000000   23.9820000000
H     23.2460000000   31.4910000000   24.8760000000
H     23.1520000000   31.2710000000   23.1410000000
O     25.3000000000   33.5360000000   24.5610000000
C     30.9940000000   30.9220000000   28.7270000000
H     30.6240000000   31.5370000000   29.5510000000
H     30.5780000000   31.4140000000   27.8440000000
H     30.6830000000   29.8830000000   28.8630000000
S     32.7770000000   31.1300000000   28.5220000000
C     33.2460000000   30.3080000000   30.0610000000
H     33.8760000000   29.4290000000   29.9060000000
H     33.9120000000   31.0010000000   30.5820000000
H     32.4360000000   30.0460000000   30.7470000000
O     32.9790000000   32.6130000000   28.5600000000
C     29.7710000000   35.5960000000   26.1210000000
H     29.6390000000   35.5200000000   27.2030000000
H     30.6840000000   36.1620000000   25.9200000000
H     28.8870000000   36.1380000000   25.7740000000
S     29.7490000000   34.0720000000   25.1490000000
C     31.1810000000   33.4710000000   26.0730000000
H     32.1010000000   33.9060000000   25.6760000000
H     31.0990000000   33.6150000000   27.1540000000
H     31.2990000000   32.3980000000   25.9020000000
O     30.4390000000   34.3430000000   23.8490000000
C     31.3250000000   30.4260000000   22.0540000000
H     31.2450000000   31.5140000000   22.1270000000
H     30.9210000000   29.8630000000   22.9000000000
H     32.4070000000   30.3400000000   21.9330000000
S     30.5480000000   29.7660000000   20.5620000000
C     28.8360000000   29.9910000000   21.0930000000
H     28.7470000000   31.0420000000   21.3830000000
H     28.2490000000   29.7540000000   20.2020000000
H     28.5180000000   29.2890000000   21.8680000000
O     30.7470000000   28.2830000000   20.6150000000
C     34.1190000000   22.7930000000   31.2860000000
H     34.4640000000   23.7640000000   31.6490000000
H     34.6620000000   21.9590000000   31.7400000000
H     34.3020000000   22.8080000000   30.2090000000
S     32.3950000000   22.4860000000   31.7310000000
C     32.2900000000   21.0460000000   30.6440000000
H     31.5670000000   20.3690000000   31.1060000000
H     31.9480000000   21.4240000000   29.6770000000
H     33.2820000000   20.5880000000   30.6260000000
O     31.6620000000   23.6030000000   31.0570000000
C     30.8690000000   33.5940000000   32.2540000000
H     31.7950000000   33.2050000000   32.6850000000
H     30.4060000000   34.4230000000   32.7970000000
H     30.0600000000   32.9230000000   31.9530000000
S     31.4940000000   34.3400000000   30.7310000000
C     32.5250000000   35.5270000000   31.6220000000
H     32.8370000000   36.2720000000   30.8860000000
H     31.8720000000   35.9240000000   32.4040000000
H     33.4170000000   34.9840000000   31.9430000000
O     30.2850000000   35.0980000000   30.2810000000
C     27.2980000000   22.2870000000   31.8550000000
H     26.7720000000   23.2180000000   32.0820000000
H     26.5780000000   21.5420000000   31.5070000000
H     27.7640000000   21.9240000000   32.7740000000
S     28.6930000000   22.3650000000   30.7090000000
C     27.7480000000   22.8490000000   29.2470000000
H     27.0680000000   22.0370000000   28.9790000000
H     27.1800000000   23.7610000000   29.4500000000
H     28.4690000000   22.9960000000   28.4390000000
O     28.9790000000   20.9070000000   30.5260000000
C     23.4640000000   23.2880000000   29.9210000000
H     24.3380000000   22.6470000000   29.7750000000
H     22.9970000000   22.9910000000   30.8640000000
H     22.7490000000   23.1250000000   29.1100000000
S     23.9480000000   24.9840000000   30.3100000000
C     24.4350000000   25.6730000000   28.7110000000
H     23.6250000000   26.1600000000   28.1620000000
H     25.2440000000   26.4000000000   28.8210000000
H     24.7430000000   24.8630000000   28.0450000000
O     25.2690000000   24.9340000000   31.0120000000
C     30.2780000000   24.9890000000   21.0170000000
H     30.1220000000   25.9930000000   21.4210000000
H     31.3120000000   25.0220000000   20.6630000000
H     29.5980000000   24.6070000000   20.2520000000
S     29.8590000000   23.9400000000   22.4280000000
C     30.6220000000   22.4750000000   21.6960000000
H     30.2230000000   21.7450000000   22.4050000000
H     30.2530000000   22.3590000000   20.6730000000
H     31.7130000000   22.5370000000   21.7090000000
O     28.3880000000   23.6650000000   22.4600000000
C     28.8900000000   20.0550000000   25.5820000000
H     29.4940000000   19.9240000000   24.6810000000
H     28.4140000000   21.0380000000   25.5350000000
H     29.3950000000   19.8080000000   26.5190000000
S     27.5500000000   18.8460000000   25.6680000000
C     26.7720000000   19.3550000000   24.1180000000
H     25.9980000000   18.6240000000   23.8700000000
H     26.2500000000   20.3040000000   24.2590000000
H     27.5760000000   19.4520000000   23.3840000000
O     26.6810000000   19.2790000000   26.8080000000
C     27.7260000000   38.6690000000   29.6730000000
H     28.4340000000   38.2800000000   30.4100000000
H     27.9860000000   39.7090000000   29.4610000000
H     26.7140000000   38.4040000000   29.9900000000
S     28.3000000000   37.8070000000   28.1930000000
C     30.0120000000   38.3010000000   28.4940000000
H     30.1660000000   39.3790000000   28.5870000000
H     30.3900000000   37.7650000000   29.3680000000
H     30.4090000000   37.9110000000   27.5530000000
O     27.7660000000   38.6760000000   27.0980000000
C     22.2230000000   25.2140000000   26.0870000000
H     22.2450000000   25.0050000000   27.1600000000
H     23.2150000000   25.4060000000   25.6700000000
H     21.7130000000   26.1710000000   25.9480000000
S     21.4380000000   23.7530000000   25.3690000000
C     21.2130000000   24.6550000000   23.8200000000
H     20.4990000000   24.0890000000   23.2160000000
H     20.9110000000   25.6930000000   23.9800000000
H     22.1870000000   24.6650000000   23.3230000000
O     20.0300000000   23.7240000000   25.8770000000
C     36.4220000000   31.9870000000   26.0480000000
H     37.4050000000   31.7230000000   25.6500000000
H     36.1810000000   33.0530000000   26.0360000000
H     36.2060000000   31.4980000000   27.0010000000
S     35.5140000000   31.2480000000   24.6720000000
C     33.8250000000   31.8020000000   24.9980000000
H     33.6290000000   31.4570000000   26.0160000000
H     33.8920000000   32.8910000000   24.9340000000
H     33.1270000000   31.3290000000   24.3020000000
O     35.4880000000   29.7730000000   24.9270000000
C     24.5650000000   27.2190000000   23.5900000000
H     24.1030000000   27.9480000000   24.2610000000
H     23.9100000000   26.5510000000   23.0240000000
H     25.0800000000   26.6220000000   24.3470000000
S     25.7410000000   27.8310000000   22.3630000000
C     27.1070000000   26.6500000000   22.4330000000
H     26.7100000000   25.6830000000   22.1150000000
H     27.9870000000   27.0060000000   21.8900000000
H     27.4910000000   26.7570000000   23.4510000000
O     26.4520000000   28.9780000000   23.0100000000
C     26.0380000000   37.1790000000   24.4510000000
H     27.0920000000   37.4660000000   24.4480000000
H     25.3840000000   38.0240000000   24.6810000000
H     25.6930000000   36.3590000000   25.0870000000
S     25.6230000000   36.5580000000   22.8050000000
C     27.0490000000   35.4500000000   22.7530000000
H     27.0390000000   34.6960000000   23.5440000000
H     27.1030000000   34.9030000000   21.8090000000
H     27.9520000000   36.0350000000   22.9510000000
O     26.0780000000   37.6980000000   21.9480000000
C     34.4790000000   26.4680000000   22.9120000000
H     33.4710000000   26.0720000000   23.0630000000
H     34.9940000000   25.6590000000   22.3870000000
H     35.0740000000   26.7610000000   23.7810000000
S     34.6660000000   27.8860000000   21.8090000000
C     33.7670000000   26.9290000000   20.5680000000
H     33.6130000000   27.5560000000   19.6870000000
H     34.4640000000   26.1290000000   20.3050000000
H     32.8310000000   26.5310000000   20.9680000000
O     36.0950000000   27.8220000000   21.3670000000
C     27.6120000000   32.5630000000   30.9450000000
H     27.8610000000   33.0840000000   31.8740000000
H     28.4340000000   31.9050000000   30.6520000000
H     27.3010000000   33.2570000000   30.1600000000
S     26.2080000000   31.4880000000   31.3160000000
C     25.2270000000   32.7790000000   32.1130000000
H     25.6360000000   33.2190000000   33.0260000000
H     24.8660000000   33.5050000000   31.3800000000
H     24.3590000000   32.2400000000   32.5020000000
O     26.7830000000   30.6390000000   32.4070000000
C     32.8960000000   19.2030000000   26.6810000000
H     31.9460000000   19.1210000000   27.2160000000
H     33.5410000000   18.3830000000   27.0090000000
H     33.3730000000   20.0530000000   27.1750000000
S     32.6740000000   19.1560000000   24.8880000000
C     34.4580000000   19.2250000000   24.6080000000
H     35.1100000000   18.6040000000   25.2260000000
H     34.6040000000   18.9900000000   23.5510000000
H     34.6330000000   20.2690000000   24.8820000000
O     32.2410000000   20.5660000000   24.6290000000
C     33.5050000000   23.1630000000   27.1050000000
H     32.6140000000   22.6340000000   26.7580000000
H     34.3780000000   22.5100000000   27.1860000000
H     33.3670000000   23.7640000000   28.0070000000
S     33.9410000000   24.3000000000   25.7700000000
C     33.1590000000   23.3460000000   24.4490000000
H     33.7540000000   22.4300000000   24.4840000000
H     32.0870000000   23.1830000000   24.5850000000
H     33.3740000000   23.7640000000   23.4610000000
O     35.4070000000   24.0640000000   25.5830000000
C     24.0940000000   29.1440000000   29.3810000000
H     23.4880000000   29.9820000000   29.7350000000
H     23.6120000000   28.2310000000   29.7380000000
H     25.1140000000   29.0880000000   29.7690000000
S     24.1190000000   29.0440000000   27.5770000000
C     24.5610000000   30.7940000000   27.4950000000
H     23.8800000000   31.4590000000   28.0320000000
H     25.4970000000   30.8470000000   28.0560000000
H     24.5560000000   31.1380000000   26.4570000000
O     22.6700000000   28.8680000000   27.2450000000
C     25.0280000000   36.2400000000   27.8820000000
H     25.8920000000   36.7040000000   27.4010000000
H     24.3290000000   35.8250000000   27.1510000000
H     24.4250000000   36.9560000000   28.4460000000
S     25.5740000000   34.8600000000   28.9140000000
C     26.3390000000   33.9160000000   27.5770000000
H     27.2180000000   34.4660000000   27.2330000000
H     26.5160000000   32.9070000000   27.9600000000
H     25.5900000000   33.7630000000   26.7950000000
O     24.3360000000   34.0640000000   29.1860000000
C     26.1930000000   32.3080000000   20.6320000000
H     27.1090000000   32.5900000000   20.1070000000
H     25.5770000000   33.1510000000   20.9560000000
H     26.4700000000   31.5930000000   21.4110000000
S     25.2960000000   31.3990000000   19.3540000000
C     23.8090000000   31.2520000000   20.3710000000
H     24.0090000000   30.5280000000   21.1650000000
H     23.5420000000   32.2440000000   20.7430000000
H     22.9500000000   30.8290000000   19.8440000000
O     25.9400000000   30.0670000000   19.5770000000
C     34.7080000000   28.2970000000   32.7870000000
H     35.4960000000   28.6970000000   33.4300000000
H     35.2160000000   28.2670000000   31.8190000000
H     33.7590000000   28.8330000000   32.8690000000
S     34.7530000000   26.5370000000   33.1930000000
C     33.1090000000   26.1340000000   32.5600000000
H     32.3780000000   26.9100000000   32.7970000000
H     33.2180000000   26.0730000000   31.4740000000
H     32.7220000000   25.1760000000   32.9170000000
O     34.5330000000   26.6290000000   34.6700000000
C     25.0750000000   23.1140000000   23.8390000000
H     25.1370000000   22.1690000000   23.2930000000
H     24.0860000000   23.3530000000   24.2370000000
H     25.3840000000   23.9600000000   23.2200000000
S     26.0270000000   23.2380000000   25.3690000000
C     24.9060000000   22.1490000000   26.2770000000
H     25.1750000000   22.0850000000   27.3350000000
H     23.8960000000   22.5460000000   26.1480000000
H     24.9930000000   21.1650000000   25.8080000000
O     25.4980000000   24.5400000000   25.8830000000
C     28.7520000000   28.3740000000   33.5940000000
H     28.9330000000   29.4080000000   33.8970000000
H     27.7920000000   27.9720000000   33.9270000000
H     29.6080000000   27.8760000000   34.0570000000
S     28.6610000000   28.1870000000   31.7980000000
C     28.3580000000   26.4070000000   31.7240000000
H     28.1490000000   26.1860000000   30.6750000000
H     29.2200000000   25.7980000000   32.0060000000
H     27.5540000000   26.1120000000   32.4040000000
O     30.0920000000   28.3150000000   31.3800000000
C     34.4010000000   27.8700000000   27.4310000000
H     33.5250000000   28.2660000000   27.9510000000
H     34.2870000000   28.1240000000   26.3740000000
H     34.4320000000   26.7770000000   27.4430000000
S     35.9670000000   28.6310000000   27.9150000000
C     36.9460000000   27.7460000000   26.6810000000
H     37.9830000000   27.7660000000   27.0250000000
H     36.5600000000   26.7260000000   26.6130000000
H     36.8020000000   28.1170000000   25.6630000000
O     36.3040000000   27.8430000000   29.1430000000
