302

C     23.5130000000   15.4540000000   26.0190000000
C     22.8840000000   15.4760000000   27.4210000000
C     23.7640000000   16.0630000000   28.5370000000
C     24.3760000000   17.4180000000   28.1440000000
C     25.0360000000   17.4250000000   26.7550000000
C     24.0340000000   16.8720000000   25.7290000000
H     23.1700000000   16.1730000000   29.4520000000
H     22.0090000000   16.1370000000   27.3750000000
H     24.3370000000   14.7620000000   25.8070000000
H     22.7530000000   15.1480000000   25.2900000000
H     23.6430000000   18.2350000000   28.1540000000
H     25.0590000000   17.7710000000   28.9250000000
H     25.3650000000   18.4450000000   26.5180000000
H     25.9290000000   16.7890000000   26.7430000000
H     23.1650000000   17.5210000000   25.5680000000
H     24.3210000000   16.8210000000   24.6710000000
H     24.6130000000   15.3740000000   28.6280000000
N     22.4200000000   14.1160000000   27.6880000000
H     22.9180000000   13.2930000000   27.3680000000
C     21.2980000000   13.7680000000   28.4100000000
H     20.9670000000   12.7150000000   28.3560000000
O     20.7060000000   14.6220000000   29.0470000000
C     22.4590000000   23.4070000000   21.6950000000
H     21.6220000000   23.8830000000   21.1760000000
H     22.1150000000   23.3790000000   22.7320000000
H     23.3990000000   23.9430000000   21.5420000000
S     22.4830000000   21.6130000000   21.4840000000
C     23.1170000000   21.6770000000   19.7930000000
H     23.6610000000   20.7580000000   19.5600000000
H     22.2670000000   21.6790000000   19.1060000000
H     23.8000000000   22.5090000000   19.6040000000
O     21.0090000000   21.3630000000   21.3970000000
C     20.2840000000   17.6620000000   24.0930000000
H     20.6300000000   18.6750000000   24.3120000000
H     19.4230000000   17.6270000000   23.4210000000
H     20.1200000000   17.0520000000   24.9850000000
S     21.5840000000   16.9060000000   23.0910000000
C     22.2570000000   18.3670000000   22.2680000000
H     22.9800000000   18.0990000000   21.4930000000
H     21.4210000000   18.8640000000   21.7690000000
H     22.6100000000   19.1270000000   22.9690000000
O     20.7920000000   16.1300000000   22.0850000000
C     25.2100000000   20.4360000000   30.7940000000
H     24.7310000000   19.4580000000   30.8910000000
H     26.3030000000   20.4070000000   30.7650000000
H     24.9440000000   20.9640000000   31.7130000000
S     24.5580000000   21.4130000000   29.4210000000
C     25.7520000000   22.7620000000   29.5670000000
H     25.6550000000   23.2390000000   30.5460000000
H     26.7640000000   22.3850000000   29.3980000000
H     25.4930000000   23.3920000000   28.7130000000
O     23.3370000000   22.1240000000   29.9150000000
C     27.7320000000   12.9630000000   24.2220000000
H     27.9380000000   13.3460000000   23.2190000000
H     27.0770000000   12.1040000000   24.0610000000
H     27.2750000000   13.7300000000   24.8530000000
S     29.3200000000   12.5520000000   24.9820000000
C     29.2890000000   10.9640000000   24.1210000000
H     28.6700000000   10.3040000000   24.7340000000
H     28.9720000000   11.0650000000   23.0800000000
H     30.3050000000   10.5720000000   24.0260000000
O     29.0950000000   12.2760000000   26.4360000000
C     30.1360000000   20.9510000000   31.9370000000
H     29.9050000000   20.3600000000   32.8280000000
H     30.8210000000   21.7910000000   32.0750000000
H     29.1960000000   21.3320000000   31.5300000000
S     30.9410000000   19.7620000000   30.8400000000
C     29.6100000000   18.5500000000   30.9970000000
H     28.7020000000   18.9470000000   30.5360000000
H     29.9830000000   17.7040000000   30.4150000000
H     29.4060000000   18.2310000000   32.0220000000
O     32.0580000000   19.1030000000   31.5880000000
C     25.7440000000   15.7450000000   33.4200000000
H     24.8120000000   15.3610000000   32.9980000000
H     26.6050000000   15.1730000000   33.0660000000
H     25.6630000000   15.6350000000   34.5040000000
S     25.9760000000   17.4590000000   32.8950000000
C     26.3570000000   16.9580000000   31.2010000000
H     27.1650000000   16.2230000000   31.2270000000
H     25.5320000000   16.4030000000   30.7470000000
H     26.5760000000   17.7790000000   30.5130000000
O     27.3510000000   17.6480000000   33.4550000000
C     25.2340000000   22.1660000000   34.6560000000
H     24.5060000000   21.9820000000   33.8620000000
H     24.8520000000   21.9030000000   35.6460000000
H     25.4330000000   23.2360000000   34.5630000000
S     26.6450000000   21.1670000000   34.1290000000
C     27.6260000000   21.4980000000   35.6090000000
H     27.6200000000   22.5720000000   35.8110000000
H     27.2720000000   20.8210000000   36.3910000000
H     28.6840000000   21.2410000000   35.5110000000
O     27.2790000000   21.9940000000   33.0540000000
C     22.3980000000   18.8990000000   35.3570000000
H     23.3100000000   18.4850000000   35.7940000000
H     21.9910000000   19.7630000000   35.8880000000
H     21.6390000000   18.1130000000   35.3080000000
S     22.8600000000   19.4190000000   33.6890000000
C     21.1960000000   20.0920000000   33.4780000000
H     21.0100000000   20.7690000000   34.3160000000
H     21.0020000000   20.5050000000   32.4850000000
H     20.4810000000   19.2740000000   33.5960000000
O     22.9130000000   18.1800000000   32.8500000000
C     22.1130000000    7.3110000000   29.4670000000
H     22.4990000000    8.3330000000   29.4810000000
H     22.7750000000    6.5970000000   29.9640000000
H     21.9920000000    7.0150000000   28.4220000000
S     20.4900000000    7.3880000000   30.2580000000
C     21.0190000000    8.0950000000   31.8340000000
H     22.0480000000    8.4460000000   31.7250000000
H     20.3270000000    8.8430000000   32.2280000000
H     20.9310000000    7.2930000000   32.5720000000
O     20.1520000000    5.9540000000   30.5200000000
C     15.2910000000   13.9820000000   24.1660000000
H     14.2750000000   13.8160000000   23.8000000000
H     15.6740000000   14.8770000000   23.6680000000
H     15.9570000000   13.1440000000   23.9450000000
S     15.3440000000   14.2960000000   25.9450000000
C     15.7150000000   12.6260000000   26.5270000000
H     16.6220000000   12.2600000000   26.0390000000
H     15.8550000000   12.7310000000   27.6060000000
H     14.7530000000   12.1440000000   26.3360000000
O     13.9240000000   14.4350000000   26.4000000000
C     20.4160000000   11.3790000000   24.2850000000
H     21.3770000000   11.8220000000   24.0130000000
H     20.3900000000   11.2870000000   25.3730000000
H     20.2200000000   10.4540000000   23.7360000000
S     19.2380000000   12.5950000000   23.6520000000
C     19.3860000000   13.8640000000   24.9300000000
H     18.7640000000   14.7490000000   24.7760000000
H     19.0380000000   13.3600000000   25.8360000000
H     20.4470000000   14.1250000000   24.9350000000
O     17.9340000000   11.9530000000   24.0100000000
C     28.9420000000   15.2310000000   27.6440000000
H     28.4270000000   14.8740000000   26.7490000000
H     28.4520000000   16.1680000000   27.9200000000
H     29.9750000000   15.5160000000   27.4260000000
S     28.9460000000   14.0640000000   29.0230000000
C     27.1510000000   13.8690000000   28.9510000000
H     26.8670000000   13.4230000000   29.9070000000
H     26.6710000000   14.8420000000   28.8170000000
H     26.9890000000   13.0810000000   28.2110000000
O     29.2110000000   15.0280000000   30.1370000000
C     27.1320000000   18.7460000000   23.1350000000
H     27.9300000000   19.0700000000   23.8080000000
H     26.3670000000   18.2480000000   23.7370000000
H     27.6620000000   18.0990000000   22.4320000000
S     26.3690000000   19.9830000000   22.0610000000
C     25.6290000000   20.8830000000   23.4420000000
H     26.3700000000   21.4050000000   24.0520000000
H     24.9750000000   21.6070000000   22.9480000000
H     25.0560000000   20.1800000000   24.0510000000
O     25.2660000000   19.2250000000   21.3900000000
C     17.6170000000   15.5330000000   28.9460000000
H     17.2580000000   16.5600000000   28.8370000000
H     18.6770000000   15.5770000000   28.6840000000
H     17.1250000000   14.8870000000   28.2140000000
S     17.3080000000   15.2000000000   30.6950000000
C     17.4490000000   13.4050000000   30.5470000000
H     18.4080000000   13.2660000000   30.0410000000
H     17.5460000000   13.0720000000   31.5840000000
H     16.5120000000   13.0610000000   30.1020000000
O     15.8350000000   15.4490000000   30.7820000000
C     21.1400000000   14.8870000000   32.0380000000
H     21.5780000000   13.8880000000   31.9690000000
H     20.2510000000   14.9480000000   31.4060000000
H     21.8570000000   15.6480000000   31.7180000000
S     20.6320000000   15.2540000000   33.7330000000
C     22.2920000000   15.2080000000   34.4440000000
H     22.7910000000   14.2650000000   34.2050000000
H     22.8120000000   16.0910000000   34.0630000000
H     22.3220000000   15.2720000000   35.5350000000
O     19.9840000000   14.0060000000   34.2480000000
C     28.1710000000   18.5550000000   17.8470000000
H     29.0320000000   19.0440000000   17.3840000000
H     27.4980000000   18.1630000000   17.0800000000
H     27.6660000000   19.3190000000   18.4430000000
S     28.6850000000   17.2530000000   18.9900000000
C     27.0180000000   16.9810000000   19.6310000000
H     27.0840000000   16.2590000000   20.4490000000
H     26.7740000000   17.9330000000   20.1100000000
H     26.3410000000   16.7150000000   18.8150000000
O     29.4580000000   17.9240000000   20.0830000000
C     17.7600000000   19.8710000000   25.9770000000
H     17.7810000000   19.6750000000   27.0520000000
H     18.7770000000   19.8900000000   25.5780000000
H     17.2570000000   20.8390000000   25.9020000000
S     16.7880000000   18.5300000000   25.2540000000
C     15.2890000000   18.6610000000   26.2550000000
H     14.9090000000   19.6230000000   25.9020000000
H     14.5700000000   17.9040000000   25.9300000000
H     15.3850000000   18.6590000000   27.3440000000
O     17.4120000000   17.2810000000   25.7940000000
C     20.2580000000   19.3660000000   28.2600000000
H     20.0040000000   20.3310000000   27.8120000000
H     21.2360000000   19.0380000000   27.8980000000
H     19.5060000000   18.5870000000   28.1060000000
S     20.2660000000   19.6390000000   30.0460000000
C     20.9130000000   17.9790000000   30.3480000000
H     21.9760000000   18.1330000000   30.5490000000
H     20.5030000000   17.7020000000   31.3230000000
H     20.6370000000   17.3210000000   29.5200000000
O     18.8480000000   19.5240000000   30.5090000000
C     27.2720000000   20.8250000000   26.4340000000
H     26.8170000000   21.7230000000   26.8600000000
H     27.8450000000   20.9750000000   25.5160000000
H     26.4490000000   20.1490000000   26.1890000000
S     28.3110000000   20.0030000000   27.6630000000
C     29.0700000000   18.7240000000   26.6370000000
H     29.7630000000   18.1400000000   27.2490000000
H     28.2580000000   18.0920000000   26.2690000000
H     29.5830000000   19.0450000000   25.7270000000
O     27.3100000000   19.2890000000   28.5170000000
C     22.6810000000   11.5220000000   32.6630000000
H     22.7090000000   10.5570000000   33.1770000000
H     22.1900000000   12.2660000000   33.2950000000
H     22.1140000000   11.4390000000   31.7320000000
S     24.3980000000   11.8840000000   32.2310000000
C     24.8000000000   12.1810000000   33.9680000000
H     24.1910000000   12.9820000000   34.3950000000
H     24.6600000000   11.2290000000   34.4870000000
H     25.8720000000   12.3880000000   34.0080000000
O     24.4160000000   13.1460000000   31.4270000000
C     31.8190000000   17.8330000000   23.5610000000
H     31.6200000000   18.7000000000   24.1970000000
H     32.8820000000   17.6510000000   23.3810000000
H     31.2970000000   17.8920000000   22.6030000000
S     31.3950000000   16.3580000000   24.5150000000
C     29.7010000000   16.3390000000   23.8880000000
H     29.5570000000   16.0660000000   22.8390000000
H     29.1280000000   15.6380000000   24.5010000000
H     29.2260000000   17.3040000000   24.0810000000
O     31.1970000000   16.7910000000   25.9340000000
C     23.4370000000   14.8100000000   20.6770000000
H     23.7840000000   14.9430000000   19.6480000000
H     22.4510000000   14.3430000000   20.6240000000
H     23.4620000000   15.8340000000   21.0600000000
S     24.5820000000   13.6960000000   21.5210000000
C     23.4390000000   13.4570000000   22.9000000000
H     23.8860000000   12.9380000000   23.7510000000
H     22.9820000000   14.3950000000   23.2280000000
H     22.6890000000   12.7370000000   22.5640000000
O     25.7370000000   14.5540000000   21.9320000000
C     25.1330000000   24.8240000000   24.0840000000
H     25.0890000000   25.7940000000   23.5830000000
H     25.8970000000   24.2480000000   23.5570000000
H     24.0830000000   24.5240000000   24.1400000000
S     25.6690000000   25.0450000000   25.7950000000
C     27.1700000000   26.0180000000   25.5330000000
H     26.9540000000   27.0790000000   25.3880000000
H     27.7630000000   25.8520000000   26.4360000000
H     27.8090000000   25.5970000000   24.7520000000
O     26.1130000000   23.6810000000   26.2230000000
C     17.7760000000    9.9320000000   28.5900000000
H     18.0570000000   10.3800000000   29.5460000000
H     16.7380000000   10.1940000000   28.3690000000
H     17.9600000000    8.8610000000   28.7010000000
S     18.8980000000   10.4210000000   27.2600000000
C     18.8130000000    8.8330000000   26.4010000000
H     19.0650000000    8.0090000000   27.0740000000
H     17.7950000000    8.6710000000   26.0390000000
H     19.4380000000    8.9650000000   25.5140000000
O     20.2400000000   10.4610000000   27.9210000000
C     22.3850000000   22.2830000000   26.7330000000
H     23.3830000000   22.2570000000   27.1780000000
H     22.0280000000   23.2740000000   26.4430000000
H     21.6960000000   21.7350000000   27.3820000000
S     22.4600000000   21.4120000000   25.1520000000
C     20.7000000000   21.6650000000   24.8280000000
H     20.3220000000   21.0440000000   24.0120000000
H     20.1510000000   21.3840000000   25.7310000000
H     20.4520000000   22.7010000000   24.5870000000
O     22.3120000000   20.0230000000   25.6900000000
C     25.8120000000   10.2420000000   26.3080000000
H     25.3800000000    9.4920000000   26.9740000000
H     25.5610000000   10.0290000000   25.2650000000
H     26.9030000000   10.2670000000   26.3700000000
S     25.0190000000   11.8240000000   26.6760000000
C     24.5570000000   11.3930000000   28.3690000000
H     23.7650000000   10.6400000000   28.3440000000
H     25.4240000000   10.9150000000   28.8320000000
H     24.3510000000   12.2540000000   29.0110000000
O     23.8300000000   11.6930000000   25.7770000000
C     31.4130000000   21.1360000000   21.7190000000
H     31.5650000000   20.9520000000   20.6520000000
H     31.6480000000   22.1730000000   21.9720000000
H     31.9810000000   20.4530000000   22.3570000000
S     29.6740000000   20.7970000000   22.0730000000
C     28.8990000000   22.1450000000   21.1510000000
H     28.4670000000   21.8570000000   20.1890000000
H     28.0680000000   22.5330000000   21.7440000000
H     29.6100000000   22.9690000000   21.0470000000
O     29.5830000000   21.3030000000   23.4790000000
C     22.7090000000    6.3720000000   23.9230000000
H     22.0260000000    6.0240000000   24.7020000000
H     22.3660000000    5.8530000000   23.0230000000
H     23.7470000000    6.2110000000   24.2250000000
S     22.2480000000    8.1190000000   23.9060000000
C     22.3720000000    8.3040000000   25.6990000000
H     21.5570000000    8.9820000000   25.9640000000
H     22.2810000000    7.3770000000   26.2710000000
H     23.3700000000    8.7150000000   25.8750000000
O     20.7570000000    8.0580000000   23.7840000000
