292

C     29.9660000000   28.2780000000   26.5410000000
C     29.1390000000   28.3740000000   27.8340000000
C     28.8030000000   26.9650000000   28.3490000000
C     30.0600000000   26.0950000000   28.5170000000
C     30.9590000000   26.0810000000   27.2700000000
C     31.2730000000   27.4950000000   26.7520000000
H     28.2490000000   26.9870000000   29.2960000000
H     29.7660000000   28.8770000000   28.5800000000
H     29.4820000000   27.7630000000   25.7030000000
H     30.1950000000   29.3230000000   26.3010000000
H     30.6370000000   26.4590000000   29.3760000000
H     29.7950000000   25.0590000000   28.7610000000
H     31.8640000000   25.5020000000   27.4920000000
H     30.4710000000   25.5680000000   26.4330000000
H     31.8900000000   27.9540000000   27.5330000000
H     31.8540000000   27.4660000000   25.8230000000
H     28.1160000000   26.5640000000   27.5940000000
N     27.9190000000   29.1690000000   27.7070000000
H     27.2560000000   28.9490000000   26.9730000000
C     27.5800000000   30.1670000000   28.5950000000
H     26.5840000000   30.5800000000   28.3540000000
O     28.3600000000   30.4840000000   29.4760000000
C     23.8020000000   31.2680000000   23.8000000000
H     23.3420000000   32.2100000000   24.1100000000
H     23.1340000000   30.6950000000   23.1510000000
H     24.0560000000   30.6490000000   24.6640000000
S     25.2600000000   31.5040000000   22.7590000000
C     26.3480000000   32.1370000000   24.0560000000
H     27.0760000000   32.8990000000   23.7650000000
H     25.7950000000   32.5060000000   24.9230000000
H     26.9270000000   31.2910000000   24.4360000000
O     24.8960000000   32.6920000000   21.9240000000
C     33.3000000000   31.1240000000   26.7740000000
H     32.2910000000   30.9650000000   26.3860000000
H     33.8220000000   31.7550000000   26.0500000000
H     33.7650000000   30.1350000000   26.7860000000
S     33.4770000000   32.0150000000   28.3360000000
C     32.1910000000   31.0220000000   29.1280000000
H     31.1930000000   31.1570000000   28.7020000000
H     32.5130000000   29.9820000000   29.0320000000
H     32.2370000000   31.3210000000   30.1780000000
O     32.8380000000   33.3640000000   28.2220000000
C     25.4500000000   25.3650000000   33.6160000000
H     24.5040000000   25.3390000000   34.1620000000
H     25.4350000000   24.6000000000   32.8350000000
H     26.3070000000   25.3270000000   34.2930000000
S     25.5810000000   26.8970000000   32.6670000000
C     27.2760000000   26.5680000000   32.1340000000
H     27.3150000000   25.5630000000   31.7050000000
H     27.6910000000   27.3550000000   31.4990000000
H     27.8810000000   26.6880000000   33.0360000000
O     25.7790000000   28.0170000000   33.6410000000
C     30.6290000000   36.3170000000   25.1080000000
H     30.8060000000   35.8350000000   24.1430000000
H     30.2200000000   37.3130000000   24.9250000000
H     31.5160000000   36.3440000000   25.7470000000
S     29.3820000000   35.2690000000   25.8900000000
C     30.5960000000   33.9320000000   25.8860000000
H     31.5320000000   34.1740000000   26.3960000000
H     30.2310000000   33.0830000000   26.4700000000
H     30.8160000000   33.6140000000   24.8640000000
O     28.4140000000   34.8440000000   24.8300000000
C     29.6330000000   29.6860000000   23.2230000000
H     30.5860000000   30.0440000000   23.6200000000
H     29.2880000000   30.5730000000   22.6850000000
H     28.8710000000   29.3670000000   23.9390000000
S     29.9890000000   28.3420000000   22.0690000000
C     28.3230000000   28.3280000000   21.3710000000
H     28.0850000000   27.2910000000   21.1220000000
H     27.5670000000   28.8980000000   21.9180000000
H     28.3680000000   28.8780000000   20.4280000000
O     30.0810000000   27.1540000000   22.9760000000
C     35.9140000000   22.0400000000   30.6760000000
H     36.8120000000   22.1560000000   30.0630000000
H     36.1590000000   22.1850000000   31.7310000000
H     35.5250000000   21.0290000000   30.5340000000
S     34.6220000000   23.1690000000   30.1100000000
C     33.2080000000   22.3980000000   30.9300000000
H     32.9150000000   22.9280000000   31.8390000000
H     32.4250000000   22.4920000000   30.1740000000
H     33.3670000000   21.3540000000   31.2140000000
O     34.4840000000   22.5750000000   28.7430000000
C     30.2960000000   34.1410000000   30.4380000000
H     30.2930000000   33.1260000000   30.0310000000
H     29.5950000000   34.1690000000   31.2770000000
H     30.1670000000   34.9500000000   29.7150000000
S     31.8980000000   34.4770000000   31.2020000000
C     31.7660000000   33.2890000000   32.5570000000
H     32.7260000000   33.1770000000   33.0680000000
H     30.9640000000   33.6840000000   33.1850000000
H     31.3860000000   32.3360000000   32.1790000000
O     31.7330000000   35.8710000000   31.7220000000
C     28.5710000000   21.4710000000   32.9210000000
H     29.1100000000   20.7490000000   32.3040000000
H     28.2880000000   21.0280000000   33.8800000000
H     27.7230000000   21.9240000000   32.4010000000
S     29.6470000000   22.8930000000   33.2150000000
C     29.7150000000   23.3160000000   31.4600000000
H     30.1500000000   22.4550000000   30.9460000000
H     28.7660000000   23.5380000000   30.9660000000
H     30.4060000000   24.1350000000   31.2430000000
O     30.9760000000   22.2310000000   33.4080000000
C     27.0680000000   23.1000000000   27.5340000000
H     27.9700000000   22.9830000000   28.1410000000
H     26.6050000000   22.1330000000   27.3200000000
H     27.1670000000   23.6920000000   26.6210000000
S     25.7980000000   23.9000000000   28.5400000000
C     24.4930000000   24.0370000000   27.2990000000
H     23.6240000000   24.6350000000   27.5880000000
H     24.8970000000   24.6170000000   26.4650000000
H     24.2710000000   23.0360000000   26.9210000000
O     26.2400000000   25.3230000000   28.6790000000
C     30.0920000000   22.9930000000   22.0850000000
H     31.1270000000   22.6450000000   22.1290000000
H     29.7530000000   23.0080000000   21.0460000000
H     30.0160000000   24.0120000000   22.4750000000
S     29.0200000000   21.9050000000   23.0490000000
C     28.7650000000   23.0730000000   24.4050000000
H     29.6960000000   23.5240000000   24.7540000000
H     28.0940000000   23.8640000000   24.0610000000
H     28.2940000000   22.4220000000   25.1460000000
O     30.0950000000   21.0800000000   23.6850000000
C     37.8920000000   24.8700000000   29.1180000000
H     37.1370000000   25.6180000000   29.3730000000
H     37.9840000000   24.0620000000   29.8480000000
H     38.8660000000   25.3560000000   29.0180000000
S     37.5730000000   24.4450000000   27.3910000000
C     38.8530000000   23.1850000000   27.1980000000
H     39.2660000000   23.2570000000   26.1890000000
H     39.5830000000   23.3690000000   27.9900000000
H     38.2930000000   22.2500000000   27.2880000000
O     38.0770000000   25.6220000000   26.6150000000
C     31.1360000000   22.2960000000   27.6560000000
H     31.4500000000   22.8120000000   28.5660000000
H     31.9500000000   22.2360000000   26.9290000000
H     30.1840000000   22.6770000000   27.2760000000
S     30.7750000000   20.5720000000   28.0630000000
C     29.8010000000   20.1510000000   26.6010000000
H     29.1960000000   19.2880000000   26.8930000000
H     29.2750000000   21.0360000000   26.2350000000
H     30.5170000000   19.7970000000   25.8550000000
O     29.7650000000   20.8000000000   29.1430000000
C     33.5900000000   24.6340000000   33.8330000000
H     32.8490000000   23.8560000000   34.0350000000
H     34.3010000000   24.3670000000   33.0470000000
H     34.1760000000   24.9600000000   34.6950000000
S     32.5940000000   26.0160000000   33.2310000000
C     33.6140000000   27.3900000000   33.8110000000
H     34.1430000000   27.1000000000   34.7220000000
H     34.3390000000   27.5340000000   33.0060000000
H     32.9890000000   28.2750000000   33.9610000000
O     31.5160000000   26.0380000000   34.2700000000
C     38.7770000000   30.6200000000   25.8880000000
H     39.4800000000   30.6690000000   25.0520000000
H     39.2290000000   31.2630000000   26.6470000000
H     38.6470000000   29.5810000000   26.2020000000
S     37.2720000000   31.4600000000   25.3440000000
C     36.7990000000   31.9130000000   27.0290000000
H     37.6150000000   32.5630000000   27.3550000000
H     35.9300000000   32.5750000000   27.0060000000
H     36.8010000000   31.0040000000   27.6370000000
O     36.2870000000   30.3720000000   25.0510000000
C     19.3930000000   30.9710000000   30.3330000000
H     19.5940000000   31.3350000000   31.3430000000
H     18.3480000000   30.6850000000   30.1890000000
H     20.1060000000   30.1700000000   30.1220000000
S     19.7470000000   32.2960000000   29.1570000000
C     21.5250000000   32.4120000000   29.4600000000
H     21.6220000000   33.4610000000   29.7500000000
H     21.8770000000   31.7440000000   30.2500000000
H     21.9800000000   32.1320000000   28.5060000000
O     19.1820000000   33.5520000000   29.7440000000
C     24.5560000000   27.0430000000   24.9330000000
H     23.7090000000   27.6590000000   24.6200000000
H     24.5100000000   26.0810000000   24.4160000000
H     24.5920000000   26.8930000000   26.0150000000
S     25.9160000000   28.0870000000   24.3610000000
C     27.1850000000   26.8180000000   24.5730000000
H     27.2900000000   26.7200000000   25.6570000000
H     26.7920000000   25.8970000000   24.1360000000
H     28.1470000000   27.1100000000   24.1440000000
O     26.2750000000   29.0000000000   25.4920000000
C     34.1280000000   28.4540000000   23.4990000000
H     35.1310000000   28.0900000000   23.7370000000
H     34.1260000000   29.5390000000   23.6310000000
H     33.2650000000   28.0080000000   23.9980000000
S     34.0430000000   28.1760000000   21.7150000000
C     34.0600000000   26.3690000000   21.7340000000
H     34.7960000000   26.1820000000   22.5200000000
H     33.1250000000   25.9050000000   22.0610000000
H     34.3910000000   25.9790000000   20.7680000000
O     35.4310000000   28.5100000000   21.2660000000
C     24.3410000000   33.1120000000   32.3420000000
H     23.7930000000   32.4100000000   31.7090000000
H     23.6650000000   33.6580000000   33.0050000000
H     24.8580000000   33.7610000000   31.6300000000
S     25.6690000000   32.4100000000   33.3460000000
C     25.9650000000   31.0980000000   32.1390000000
H     26.3940000000   30.2280000000   32.6410000000
H     24.9770000000   30.8470000000   31.7430000000
H     26.5790000000   31.6270000000   31.4050000000
O     24.9260000000   31.8770000000   34.5320000000
C     34.5420000000   22.3250000000   24.9830000000
H     33.8030000000   21.7130000000   25.5070000000
H     34.4460000000   22.1380000000   23.9100000000
H     35.5430000000   22.2240000000   25.4090000000
S     34.1670000000   24.0490000000   25.3710000000
C     32.6480000000   24.0600000000   24.3920000000
H     32.9350000000   23.7860000000   23.3740000000
H     31.8200000000   23.4600000000   24.7780000000
H     32.4070000000   25.1240000000   24.4630000000
O     35.0410000000   24.9270000000   24.5300000000
C     24.8350000000   28.4230000000   29.3490000000
H     25.4980000000   27.9890000000   28.5960000000
H     25.1280000000   29.3380000000   29.8710000000
H     24.6950000000   27.6360000000   30.0940000000
S     23.2430000000   28.6350000000   28.5220000000
C     23.7270000000   30.0220000000   27.4700000000
H     24.2030000000   30.8490000000   28.0030000000
H     24.3460000000   29.7050000000   26.6270000000
H     22.7500000000   30.3170000000   27.0790000000
O     22.2950000000   29.3170000000   29.4580000000
C     34.7300000000   31.9270000000   22.3480000000
H     34.9890000000   32.0720000000   23.4000000000
H     34.9730000000   30.9170000000   22.0080000000
H     35.3660000000   32.5810000000   21.7460000000
S     33.0650000000   32.3230000000   21.7690000000
C     32.8210000000   33.7800000000   22.8100000000
H     33.4070000000   34.5700000000   22.3330000000
H     31.7850000000   34.1270000000   22.7960000000
H     33.2890000000   33.7030000000   23.7950000000
O     32.1980000000   31.3230000000   22.4690000000
C     26.1860000000   34.0880000000   27.2900000000
H     26.1650000000   34.5470000000   26.2990000000
H     26.4840000000   34.8870000000   27.9730000000
H     26.8820000000   33.2450000000   27.2860000000
S     24.4780000000   33.5950000000   27.6150000000
C     23.9450000000   35.2970000000   27.9100000000
H     24.0760000000   35.9080000000   27.0140000000
H     22.8830000000   35.3190000000   28.1690000000
H     24.5680000000   35.8570000000   28.6110000000
O     24.6530000000   33.0210000000   28.9870000000
C     20.4840000000   29.3740000000   26.0070000000
H     19.9420000000   28.7140000000   25.3250000000
H     21.5550000000   29.3740000000   25.7880000000
H     20.3010000000   29.1350000000   27.0580000000
S     19.8790000000   31.0740000000   25.9100000000
C     19.8660000000   31.2010000000   24.1080000000
H     20.7070000000   30.6320000000   23.7030000000
H     19.0200000000   30.7540000000   23.5790000000
H     19.8400000000   32.2760000000   23.9090000000
O     21.0870000000   31.8920000000   26.2440000000
C     23.9700000000   20.3840000000   25.8260000000
H     24.6190000000   20.4260000000   26.7040000000
H     23.1210000000   21.0320000000   26.0580000000
H     23.5710000000   19.3980000000   25.5730000000
S     24.9420000000   21.0280000000   24.4450000000
C     26.2580000000   19.8680000000   24.8780000000
H     26.3940000000   20.0250000000   25.9510000000
H     25.9040000000   18.8710000000   24.6060000000
H     27.2120000000   20.1410000000   24.4190000000
O     25.3810000000   22.4090000000   24.8200000000
C     23.0910000000   25.3990000000   30.6120000000
H     22.7650000000   26.1980000000   31.2830000000
H     24.1790000000   25.3510000000   30.5210000000
H     22.7120000000   25.5950000000   29.6060000000
S     22.4070000000   23.8340000000   31.2020000000
C     20.9020000000   24.5790000000   31.8670000000
H     21.2080000000   25.3180000000   32.6120000000
H     20.3240000000   25.1120000000   31.1070000000
H     20.3290000000   23.7030000000   32.1820000000
O     23.2430000000   23.4430000000   32.3800000000
C     29.0920000000   31.6030000000   34.2110000000
H     29.1570000000   32.4790000000   33.5600000000
H     28.0700000000   31.5500000000   34.5960000000
H     29.8110000000   31.6350000000   35.0340000000
S     29.4380000000   30.1370000000   33.2130000000
C     29.1780000000   28.9160000000   34.5190000000
H     29.6560000000   27.9680000000   34.2590000000
H     29.4860000000   29.3880000000   35.4560000000
H     28.1000000000   28.7420000000   34.5660000000
O     30.9200000000   30.0160000000   33.0370000000
C     35.2060000000   27.4840000000   26.7450000000
H     35.6010000000   28.2550000000   26.0780000000
H     35.6400000000   26.5210000000   26.4640000000
H     34.1340000000   27.4040000000   26.5440000000
S     35.6560000000   27.7830000000   28.4690000000
C     34.4630000000   26.6070000000   29.1460000000
H     34.3820000000   26.8660000000   30.2050000000
H     33.4710000000   26.7180000000   28.7010000000
H     34.9020000000   25.6590000000   28.8260000000
O     35.0570000000   29.1190000000   28.7860000000
