292

C     26.7030000000   22.5790000000   26.0390000000
C     27.5820000000   23.7840000000   26.4130000000
C     28.9170000000   23.7190000000   25.6540000000
C     28.8580000000   23.4960000000   24.1340000000
C     27.8810000000   22.3750000000   23.7430000000
C     26.5550000000   22.4960000000   24.5110000000
H     29.5330000000   24.6040000000   25.8540000000
H     27.0510000000   24.7050000000   26.1440000000
H     27.1560000000   21.6920000000   26.5000000000
H     25.7050000000   22.6910000000   26.4800000000
H     28.4520000000   24.4220000000   23.7090000000
H     29.8610000000   23.3620000000   23.7110000000
H     27.7960000000   22.2770000000   22.6530000000
H     28.3200000000   21.4120000000   24.0320000000
H     25.9610000000   23.3340000000   24.1250000000
H     25.9440000000   21.6030000000   24.3320000000
H     29.5230000000   22.8760000000   26.0100000000
N     27.8170000000   23.7360000000   27.8550000000
H     28.7780000000   23.6890000000   28.1710000000
C     26.8770000000   23.8080000000   28.8610000000
H     27.3840000000   23.7210000000   29.8390000000
O     25.6950000000   24.0440000000   28.6790000000
C     25.9750000000   31.4030000000   23.3790000000
H     26.1180000000   32.4860000000   23.3430000000
H     24.9180000000   31.1340000000   23.4510000000
H     26.5370000000   30.9100000000   24.1770000000
S     26.5660000000   30.8710000000   21.7570000000
C     26.1190000000   29.1410000000   22.0290000000
H     25.0800000000   28.8720000000   21.8180000000
H     26.7500000000   28.5290000000   21.3800000000
H     26.4170000000   28.8000000000   23.0240000000
O     28.0560000000   30.7540000000   21.8310000000
C     24.4160000000   26.6020000000   30.6160000000
H     24.0770000000   26.4970000000   29.5820000000
H     23.8420000000   27.2750000000   31.2580000000
H     25.4530000000   26.9460000000   30.6320000000
S     24.3910000000   24.9940000000   31.4410000000
C     22.8590000000   24.3950000000   30.6930000000
H     22.9880000000   24.1450000000   29.6370000000
H     22.5630000000   23.5490000000   31.3180000000
H     22.0760000000   25.1560000000   30.7330000000
O     23.8800000000   25.3130000000   32.8120000000
C     29.5730000000   26.3620000000   29.6810000000
H     29.2870000000   25.8100000000   30.5800000000
H     29.0030000000   25.9780000000   28.8310000000
H     30.6270000000   26.1470000000   29.4870000000
S     29.3120000000   28.1390000000   29.8790000000
C     29.7800000000   28.3870000000   31.6070000000
H     29.3340000000   27.6180000000   32.2440000000
H     30.8440000000   28.4540000000   31.8450000000
H     29.3740000000   29.3640000000   31.8820000000
O     27.8190000000   28.2200000000   29.8220000000
C     31.1290000000   25.2080000000   34.4520000000
H     30.3850000000   26.0030000000   34.5450000000
H     30.6220000000   24.2610000000   34.6510000000
H     32.0410000000   25.4270000000   35.0150000000
S     31.7730000000   25.1430000000   32.7650000000
C     33.2950000000   24.1900000000   32.9710000000
H     33.9000000000   24.2020000000   32.0600000000
H     33.8720000000   24.7430000000   33.7160000000
H     33.0550000000   23.1720000000   33.2860000000
O     32.2680000000   26.5470000000   32.6100000000
C     31.1740000000   20.5750000000   23.8450000000
H     30.3880000000   20.3780000000   24.5790000000
H     32.1570000000   20.3660000000   24.2730000000
H     31.1380000000   21.6070000000   23.4870000000
S     30.8270000000   19.4230000000   22.4960000000
C     31.5880000000   17.9570000000   23.2290000000
H     31.6100000000   17.2560000000   22.3910000000
H     32.5850000000   18.2410000000   23.5740000000
H     30.9310000000   17.5630000000   24.0090000000
O     31.8220000000   19.7740000000   21.4340000000
C     32.8460000000   19.6970000000   26.8310000000
H     32.2670000000   20.5960000000   27.0550000000
H     32.3750000000   19.1240000000   26.0280000000
H     32.8530000000   19.1950000000   27.8020000000
S     34.5600000000   20.0320000000   26.3670000000
C     35.1250000000   18.4530000000   25.6930000000
H     36.1400000000   18.7150000000   25.3830000000
H     35.0850000000   17.6930000000   26.4770000000
H     34.4130000000   18.2250000000   24.8960000000
O     35.2560000000   20.3010000000   27.6660000000
C     30.1520000000   21.2510000000   28.4360000000
H     30.4190000000   20.2000000000   28.3000000000
H     29.0810000000   21.3800000000   28.6140000000
H     30.4550000000   21.6940000000   27.4840000000
S     30.9120000000   21.9980000000   29.8950000000
C     30.0470000000   21.1940000000   31.2620000000
H     30.1900000000   20.1130000000   31.1910000000
H     30.4220000000   21.4040000000   32.2670000000
H     29.0040000000   21.5110000000   31.1790000000
O     30.3940000000   23.4020000000   29.9350000000
C     27.3600000000   21.7660000000   19.8790000000
H     27.7770000000   21.0980000000   20.6360000000
H     26.8510000000   22.5950000000   20.3790000000
H     26.5890000000   21.3320000000   19.2370000000
S     28.6680000000   22.2980000000   18.7520000000
C     29.0790000000   20.7140000000   17.9840000000
H     29.3050000000   19.9860000000   18.7680000000
H     28.1960000000   20.4510000000   17.3970000000
H     29.9620000000   20.9060000000   17.3690000000
O     29.8530000000   22.6350000000   19.6020000000
C     25.9650000000   22.7630000000   34.7650000000
H     25.4290000000   23.3690000000   34.0290000000
H     25.3700000000   21.8600000000   34.9240000000
H     26.1030000000   23.1740000000   35.7680000000
S     27.5350000000   22.2780000000   34.0140000000
C     27.9700000000   23.7520000000   33.0620000000
H     28.2250000000   24.5500000000   33.7640000000
H     28.8320000000   23.4860000000   32.4460000000
H     27.1840000000   24.1350000000   32.4060000000
O     27.0540000000   21.3440000000   32.9480000000
C     23.0850000000   20.1480000000   25.7480000000
H     23.8200000000   19.3440000000   25.8350000000
H     22.8070000000   20.2250000000   24.6940000000
H     23.5000000000   21.0480000000   26.2100000000
S     21.5660000000   19.7490000000   26.6420000000
C     21.2930000000   18.1220000000   25.9030000000
H     21.9220000000   17.3540000000   26.3610000000
H     20.2760000000   17.9240000000   26.2490000000
H     21.3490000000   18.2300000000   24.8170000000
O     20.5390000000   20.6750000000   26.0680000000
C     20.7890000000   27.9690000000   25.4120000000
H     21.2250000000   27.3210000000   26.1760000000
H     21.5520000000   28.6950000000   25.1200000000
H     19.9580000000   28.4380000000   25.9450000000
S     20.2670000000   27.1060000000   23.9120000000
C     19.3100000000   25.8480000000   24.7880000000
H     18.8750000000   25.1700000000   24.0480000000
H     20.0020000000   25.3610000000   25.4800000000
H     18.5140000000   26.3120000000   25.3760000000
O     21.5610000000   26.4620000000   23.5250000000
C     27.1600000000   28.9330000000   25.9520000000
H     27.0160000000   29.2650000000   26.9830000000
H     27.6900000000   29.7020000000   25.3840000000
H     26.1810000000   28.7100000000   25.5200000000
S     27.9840000000   27.3330000000   25.7850000000
C     29.6630000000   27.8240000000   26.2390000000
H     30.0180000000   28.6640000000   25.6360000000
H     29.4530000000   28.3340000000   27.1830000000
H     30.4070000000   27.0300000000   26.3430000000
O     28.0020000000   27.1360000000   24.3010000000
C     29.9040000000   25.9090000000   18.4310000000
H     30.9590000000   26.0950000000   18.6460000000
H     29.7780000000   24.8440000000   18.6440000000
H     29.6100000000   26.1290000000   17.4010000000
S     28.6250000000   26.6270000000   19.4860000000
C     29.0050000000   25.8550000000   21.0750000000
H     28.2910000000   26.1210000000   21.8590000000
H     28.9890000000   24.7680000000   20.9580000000
H     30.0390000000   26.1470000000   21.2770000000
O     27.3910000000   25.8880000000   19.0700000000
C     25.1410000000   28.7870000000   33.6480000000
H     24.7920000000   29.5840000000   34.3100000000
H     24.2930000000   28.2020000000   33.2840000000
H     25.7490000000   28.1230000000   34.2670000000
S     26.0650000000   29.4210000000   32.2310000000
C     27.2240000000   30.4340000000   33.1780000000
H     27.8280000000   29.7250000000   33.7500000000
H     27.7920000000   30.9140000000   32.3760000000
H     26.6490000000   31.1500000000   33.7700000000
O     25.1250000000   30.4480000000   31.6820000000
C     24.2900000000   29.1600000000   28.4890000000
H     24.2710000000   29.4240000000   29.5490000000
H     23.6020000000   28.3280000000   28.3200000000
H     25.2760000000   28.7880000000   28.2000000000
S     23.9000000000   30.6850000000   27.6010000000
C     22.1240000000   30.5860000000   27.9170000000
H     21.6880000000   31.5880000000   27.8790000000
H     21.7340000000   29.8130000000   27.2500000000
H     22.0960000000   30.1750000000   28.9300000000
O     23.9680000000   30.2410000000   26.1730000000
C     37.5950000000   21.0510000000   21.9780000000
H     38.4560000000   21.0920000000   22.6500000000
H     37.6860000000   20.0930000000   21.4580000000
H     37.6160000000   21.9590000000   21.3710000000
S     36.2090000000   20.9440000000   23.1320000000
C     34.8890000000   21.0680000000   21.9040000000
H     33.9950000000   21.4190000000   22.4250000000
H     35.1330000000   21.7490000000   21.0840000000
H     34.7600000000   20.1760000000   21.2860000000
O     36.0880000000   22.2740000000   23.8090000000
C     20.4840000000   20.3930000000   22.8290000000
H     21.4210000000   20.8590000000   23.1450000000
H     20.0050000000   19.9380000000   23.7000000000
H     20.7550000000   19.6840000000   22.0440000000
S     19.4400000000   21.7430000000   22.2340000000
C     18.9960000000   22.3270000000   23.8850000000
H     18.7480000000   21.4880000000   24.5390000000
H     19.8600000000   22.8690000000   24.2790000000
H     18.0930000000   22.9280000000   23.7490000000
O     18.2310000000   21.0800000000   21.6510000000
C     24.3680000000   26.3760000000   25.6610000000
H     24.8850000000   27.0570000000   26.3420000000
H     25.0800000000   25.9000000000   24.9820000000
H     23.5610000000   26.8880000000   25.1300000000
S     23.5950000000   24.9830000000   26.5130000000
C     22.9550000000   23.9830000000   25.1500000000
H     22.2460000000   24.6390000000   24.6380000000
H     23.7300000000   23.5920000000   24.4870000000
H     22.3320000000   23.2030000000   25.5950000000
O     22.4240000000   25.6060000000   27.2070000000
C     23.5300000000   14.3800000000   24.1050000000
H     22.6690000000   14.3940000000   23.4330000000
H     24.4480000000   14.2420000000   23.5280000000
H     23.2950000000   13.5250000000   24.7450000000
S     23.6650000000   15.9060000000   25.0640000000
C     23.7300000000   16.9010000000   23.5570000000
H     22.9260000000   16.7330000000   22.8370000000
H     23.7570000000   17.9690000000   23.7880000000
H     24.7080000000   16.7480000000   23.0930000000
O     25.0510000000   15.8270000000   25.6230000000
C     27.4700000000   16.1140000000   23.0910000000
H     27.6460000000   16.6070000000   22.1320000000
H     26.4670000000   15.6820000000   23.1380000000
H     27.6540000000   16.7340000000   23.9730000000
S     28.6830000000   14.7780000000   22.9960000000
C     28.3800000000   14.1490000000   24.6620000000
H     28.7390000000   14.8810000000   25.3910000000
H     27.3310000000   13.9640000000   24.9060000000
H     28.9910000000   13.2590000000   24.8360000000
O     29.9490000000   15.5720000000   23.0870000000
C     30.7520000000   29.0380000000   22.8360000000
H     31.0270000000   27.9940000000   23.0070000000
H     29.8160000000   29.1830000000   23.3820000000
H     30.5560000000   29.1650000000   21.7680000000
S     32.0630000000   30.1430000000   23.4050000000
C     31.0850000000   31.5900000000   22.9390000000
H     30.9080000000   31.5340000000   21.8620000000
H     30.1430000000   31.5240000000   23.4900000000
H     31.6420000000   32.4900000000   23.2100000000
O     32.9480000000   30.0560000000   22.2010000000
C     24.2550000000   21.8570000000   21.0930000000
H     25.0310000000   22.0510000000   21.8380000000
H     24.4210000000   22.3910000000   20.1540000000
H     23.2510000000   22.0590000000   21.4750000000
S     24.3680000000   20.1050000000   20.6660000000
C     22.9680000000   20.0430000000   19.5240000000
H     22.2420000000   20.6060000000   20.1170000000
H     23.2730000000   20.5960000000   18.6320000000
H     22.6190000000   19.0400000000   19.2670000000
O     23.7560000000   19.4210000000   21.8480000000
C     24.7930000000   20.0870000000   30.9560000000
H     25.8000000000   19.7470000000   31.2090000000
H     24.3420000000   20.5730000000   31.8250000000
H     24.1400000000   19.2140000000   30.8780000000
S     24.6240000000   21.1820000000   29.5280000000
C     22.8200000000   21.1050000000   29.4630000000
H     22.3050000000   21.4450000000   30.3660000000
H     22.4350000000   21.7870000000   28.7010000000
H     22.5200000000   20.0620000000   29.3310000000
O     25.0200000000   20.2430000000   28.4310000000
C     23.0080000000   25.2790000000   21.1160000000
H     24.0450000000   24.9500000000   21.0120000000
H     23.1370000000   26.3600000000   21.2090000000
H     22.4540000000   24.9050000000   21.9810000000
S     22.0600000000   24.8800000000   19.6300000000
C     20.3800000000   25.1710000000   20.2260000000
H     19.6620000000   25.1870000000   19.4020000000
H     20.0520000000   24.4560000000   20.9850000000
H     20.2650000000   26.1860000000   20.6170000000
O     22.2750000000   23.4220000000   19.3690000000
C     34.1270000000   25.4450000000   19.3520000000
H     34.4810000000   24.6590000000   18.6800000000
H     33.0820000000   25.6570000000   19.1110000000
H     34.7610000000   26.3320000000   19.2680000000
S     34.1150000000   24.6770000000   20.9880000000
C     32.5910000000   23.7690000000   20.6430000000
H     31.7060000000   24.3600000000   20.3970000000
H     32.6000000000   22.9190000000   19.9560000000
H     32.2970000000   23.2470000000   21.5570000000
O     33.6220000000   25.8300000000   21.8050000000
C     26.9730000000   18.5250000000   26.1730000000
H     26.8480000000   18.6560000000   25.0960000000
H     26.1930000000   17.8600000000   26.5530000000
H     26.8020000000   19.4030000000   26.8010000000
S     28.5940000000   17.8110000000   26.5300000000
C     28.6000000000   17.7840000000   28.3370000000
H     29.5860000000   18.0290000000   28.7380000000
H     27.9610000000   18.4510000000   28.9220000000
H     28.3330000000   16.7540000000   28.5850000000
O     29.4940000000   18.9710000000   26.2370000000
C     33.5560000000   24.6850000000   24.7940000000
H     34.3180000000   23.9330000000   24.5710000000
H     32.5230000000   24.4690000000   24.5110000000
H     33.8930000000   25.6310000000   24.3620000000
S     33.5040000000   24.8880000000   26.5880000000
C     32.6740000000   23.3240000000   26.9500000000
H     31.9630000000   23.5630000000   27.7450000000
H     32.2190000000   22.9130000000   26.0450000000
H     33.5430000000   22.7090000000   27.1990000000
O     32.4480000000   25.9370000000   26.7510000000
