282

C     27.7760000000   30.1990000000   24.8090000000
C     28.0910000000   30.0430000000   26.3060000000
C     27.6320000000   28.6630000000   26.8040000000
C     28.1640000000   27.5320000000   25.9090000000
C     27.8030000000   27.6850000000   24.4220000000
C     28.3310000000   29.0500000000   23.9510000000
H     28.0750000000   28.5810000000   27.8030000000
H     29.1760000000   30.1080000000   26.4550000000
H     26.6850000000   30.2750000000   24.7200000000
H     28.0910000000   31.1250000000   24.3130000000
H     29.2480000000   27.4420000000   26.0490000000
H     27.7350000000   26.5500000000   26.1440000000
H     28.0470000000   26.7940000000   23.8300000000
H     26.7160000000   27.7310000000   24.2850000000
H     29.4200000000   28.9810000000   24.0570000000
H     28.0920000000   29.2350000000   22.8960000000
H     26.5410000000   28.6410000000   26.9150000000
N     27.4340000000   31.1630000000   26.9770000000
H     26.4350000000   31.2190000000   27.1380000000
C     28.2240000000   32.1400000000   27.5460000000
H     27.6630000000   33.0200000000   27.9090000000
O     29.4330000000   31.9940000000   27.4980000000
C     26.5480000000   31.9520000000   19.0120000000
H     27.1730000000   31.5160000000   18.2290000000
H     25.5290000000   31.5580000000   19.0390000000
H     26.5330000000   33.0400000000   19.1230000000
S     27.2250000000   31.3570000000   20.5780000000
C     27.2910000000   29.6220000000   20.0780000000
H     27.9870000000   29.4550000000   19.2520000000
H     27.4730000000   28.8740000000   20.8540000000
H     26.2770000000   29.3890000000   19.7430000000
O     26.0530000000   31.4780000000   21.5020000000
C     32.1040000000   29.3530000000   26.2390000000
H     32.0820000000   30.1280000000   25.4680000000
H     31.4150000000   28.5580000000   25.9420000000
H     31.7170000000   29.6810000000   27.2070000000
S     33.7910000000   28.7860000000   26.5510000000
C     34.3540000000   28.6360000000   24.8400000000
H     33.7210000000   27.9160000000   24.3150000000
H     34.2850000000   29.6190000000   24.3670000000
H     35.3870000000   28.2970000000   24.7340000000
O     33.6280000000   27.3780000000   27.0350000000
C     25.9620000000   26.0440000000   18.3600000000
H     26.4960000000   26.8810000000   17.9040000000
H     26.1470000000   26.1170000000   19.4340000000
H     26.2240000000   25.0820000000   17.9110000000
S     24.2100000000   26.4850000000   18.3070000000
C     24.0440000000   26.0150000000   16.5700000000
H     23.0140000000   26.1940000000   16.2510000000
H     24.7370000000   26.6460000000   16.0070000000
H     24.2970000000   24.9920000000   16.2830000000
O     24.3360000000   27.9760000000   18.3290000000
C     28.9540000000   35.7820000000   22.8960000000
H     29.8120000000   36.3250000000   23.3000000000
H     29.3390000000   35.2340000000   22.0330000000
H     28.1340000000   36.4030000000   22.5250000000
S     28.3580000000   34.7350000000   24.2430000000
C     27.2350000000   33.7770000000   23.2010000000
H     26.5180000000   33.2040000000   23.7930000000
H     26.5920000000   34.4660000000   22.6480000000
H     27.7290000000   33.1230000000   22.4770000000
O     27.4080000000   35.6650000000   24.9320000000
C     31.7650000000   30.5440000000   22.1800000000
H     31.0230000000   29.9970000000   22.7680000000
H     32.6420000000   29.9670000000   21.8750000000
H     32.1560000000   31.3420000000   22.8170000000
S     30.9660000000   30.9230000000   20.6050000000
C     32.5410000000   31.4890000000   19.9230000000
H     33.2190000000   30.6320000000   19.8810000000
H     32.3040000000   31.9510000000   18.9610000000
H     32.9840000000   32.3450000000   20.4390000000
O     30.1720000000   32.1750000000   20.8090000000
C     33.2480000000   34.9440000000   26.4930000000
H     33.8300000000   35.2340000000   27.3720000000
H     33.9530000000   34.8200000000   25.6670000000
H     32.5230000000   35.6800000000   26.1380000000
S     32.4430000000   33.3440000000   26.7350000000
C     33.6890000000   32.6420000000   27.8390000000
H     33.8490000000   33.3020000000   28.6950000000
H     33.4790000000   31.6140000000   28.1450000000
H     34.6170000000   32.5740000000   27.2660000000
O     32.9050000000   32.5160000000   25.5760000000
C     29.3560000000   23.0560000000   28.3720000000
H     29.3860000000   23.8660000000   29.1050000000
H     30.0990000000   23.2540000000   27.5950000000
H     28.3110000000   23.1770000000   28.0740000000
S     29.6780000000   21.4630000000   29.1630000000
C     29.3420000000   20.4710000000   27.6910000000
H     30.2960000000   20.3180000000   27.1810000000
H     28.9590000000   19.5210000000   28.0730000000
H     28.6010000000   20.8830000000   27.0020000000
O     28.3970000000   21.3470000000   29.9300000000
C     25.7990000000   24.8390000000   30.2420000000
H     25.4770000000   24.3640000000   31.1720000000
H     26.6100000000   24.3410000000   29.7050000000
H     26.2450000000   25.7900000000   30.5440000000
S     24.3490000000   25.4270000000   29.3370000000
C     25.2410000000   26.3350000000   28.0550000000
H     26.0410000000   26.9740000000   28.4380000000
H     25.5950000000   25.5710000000   27.3590000000
H     24.6070000000   27.0730000000   27.5580000000
O     23.7550000000   26.5070000000   30.1860000000
C     28.2300000000   23.0000000000   24.7360000000
H     27.4640000000   22.9420000000   25.5130000000
H     29.2280000000   22.7950000000   25.1310000000
H     28.1750000000   23.8870000000   24.1000000000
S     27.8120000000   21.6630000000   23.5940000000
C     29.4520000000   21.7120000000   22.8360000000
H     29.5360000000   22.6130000000   22.2230000000
H     30.3060000000   21.6760000000   23.5170000000
H     29.4790000000   20.8690000000   22.1410000000
O     26.9210000000   22.2090000000   22.5220000000
C     30.9840000000   27.4760000000   16.0280000000
H     30.5170000000   27.6140000000   15.0500000000
H     32.0740000000   27.4040000000   16.0010000000
H     30.5670000000   26.5190000000   16.3540000000
S     30.3310000000   28.7620000000   17.1160000000
C     31.1550000000   30.2890000000   16.6110000000
H     31.0130000000   31.1000000000   17.3290000000
H     32.2060000000   29.9930000000   16.5560000000
H     30.7360000000   30.6370000000   15.6630000000
O     30.9880000000   28.4120000000   18.4150000000
C     24.0470000000   33.7020000000   21.6020000000
H     23.5510000000   32.7750000000   21.3030000000
H     24.8660000000   34.0180000000   20.9500000000
H     24.4400000000   33.4960000000   22.6000000000
S     22.9760000000   35.1380000000   21.8410000000
C     24.1770000000   36.2450000000   22.6130000000
H     25.0660000000   36.3910000000   21.9940000000
H     23.5800000000   37.1470000000   22.7680000000
H     24.3750000000   35.8350000000   23.6070000000
O     22.2130000000   34.6140000000   23.0190000000
C     23.7680000000   27.5860000000   33.4940000000
H     23.6940000000   28.5980000000   33.9010000000
H     23.6820000000   27.6060000000   32.4050000000
H     23.1930000000   26.7750000000   33.9480000000
S     25.4700000000   27.1640000000   33.9310000000
C     25.3280000000   27.4460000000   35.7100000000
H     24.9270000000   28.4570000000   35.8200000000
H     24.5470000000   26.7680000000   36.0620000000
H     26.1920000000   27.2070000000   36.3340000000
O     26.2510000000   28.3660000000   33.4990000000
C     24.7110000000   20.8590000000   26.3300000000
H     24.8920000000   21.0210000000   25.2650000000
H     24.6710000000   19.8030000000   26.6080000000
H     23.7610000000   21.3040000000   26.6370000000
S     25.8960000000   21.7950000000   27.3220000000
C     25.4330000000   21.2120000000   28.9680000000
H     26.1030000000   21.6840000000   29.6920000000
H     24.3850000000   21.5040000000   29.0760000000
H     25.5630000000   20.1270000000   28.9640000000
O     25.4010000000   23.2040000000   27.2110000000
C     30.3360000000   34.6110000000   28.9630000000
H     29.7130000000   33.9470000000   29.5690000000
H     30.0800000000   34.4150000000   27.9180000000
H     31.4100000000   34.5130000000   29.1390000000
S     29.9050000000   36.3580000000   29.1290000000
C     28.3530000000   36.0990000000   28.2390000000
H     28.4780000000   35.6570000000   27.2470000000
H     27.6900000000   35.5150000000   28.8820000000
H     27.9080000000   37.0850000000   28.0850000000
O     30.7740000000   36.8110000000   27.9970000000
C     20.3940000000   25.9480000000   25.5390000000
H     20.2300000000   25.0110000000   25.0000000000
H     19.4070000000   26.3440000000   25.7910000000
H     20.9910000000   26.5490000000   24.8480000000
S     21.4980000000   25.7920000000   26.9610000000
C     22.8270000000   24.9260000000   26.0960000000
H     22.5160000000   23.9390000000   25.7440000000
H     23.0790000000   25.5700000000   25.2490000000
H     23.7210000000   24.7040000000   26.6830000000
O     20.9610000000   24.6320000000   27.7400000000
C     23.7850000000   23.1000000000   23.3400000000
H     24.0790000000   23.4380000000   24.3370000000
H     22.7920000000   22.6490000000   23.2660000000
H     24.5230000000   22.4400000000   22.8780000000
S     23.9020000000   24.5810000000   22.3120000000
C     25.5240000000   25.2440000000   22.7530000000
H     26.2460000000   24.6040000000   22.2400000000
H     25.6460000000   26.2040000000   22.2450000000
H     25.7490000000   25.2910000000   23.8220000000
O     22.9280000000   25.5450000000   22.9150000000
C     23.6200000000   29.6030000000   29.8240000000
H     22.8690000000   30.3940000000   29.7620000000
H     23.3640000000   28.6550000000   29.3430000000
H     23.7470000000   29.4460000000   30.8990000000
S     25.1420000000   30.2230000000   29.0730000000
C     25.3620000000   31.5330000000   30.2980000000
H     25.0170000000   31.1460000000   31.2610000000
H     26.3970000000   31.8650000000   30.4140000000
H     24.6530000000   32.3210000000   30.0310000000
O     24.7380000000   30.8920000000   27.7960000000
C     30.8290000000   26.3530000000   20.8910000000
H     31.1750000000   26.3120000000   21.9270000000
H     31.6450000000   26.0210000000   20.2430000000
H     30.6500000000   27.3960000000   20.6150000000
S     29.3060000000   25.3820000000   20.8500000000
C     29.2610000000   25.1740000000   19.0550000000
H     28.2930000000   24.7930000000   18.7190000000
H     29.3670000000   26.1660000000   18.6090000000
H     30.0870000000   24.5410000000   18.7210000000
O     28.2910000000   26.4490000000   21.1170000000
C     32.7310000000   24.6450000000   25.2490000000
H     31.8050000000   24.3010000000   24.7820000000
H     32.7610000000   25.7370000000   25.1990000000
H     33.6610000000   24.3330000000   24.7660000000
S     32.7760000000   24.0830000000   26.9650000000
C     34.5810000000   24.1750000000   26.9740000000
H     34.8410000000   23.2870000000   26.3920000000
H     34.9440000000   25.1100000000   26.5380000000
H     34.9520000000   24.2240000000   28.0010000000
O     32.4840000000   22.6180000000   26.8730000000
C     23.5460000000   29.1210000000   24.6800000000
H     22.8510000000   29.1480000000   25.5240000000
H     24.3980000000   28.4660000000   24.8790000000
H     23.9740000000   30.1050000000   24.4760000000
S     22.6700000000   28.5910000000   23.1920000000
C     24.0480000000   28.9860000000   22.0930000000
H     24.8230000000   28.2170000000   22.0360000000
H     23.5960000000   29.1490000000   21.1110000000
H     24.5110000000   29.9100000000   22.4470000000
O     21.6390000000   29.6660000000   23.0410000000
C     25.2090000000   34.2870000000   27.3310000000
H     25.5630000000   34.6630000000   28.2940000000
H     24.5770000000   33.3990000000   27.4140000000
H     26.0810000000   34.2080000000   26.6760000000
S     24.1540000000   35.6310000000   26.7430000000
C     25.2450000000   36.9720000000   27.2700000000
H     24.7680000000   37.9090000000   26.9720000000
H     25.3650000000   36.8520000000   28.3500000000
H     26.1700000000   36.7480000000   26.7330000000
O     23.0730000000   35.6800000000   27.7780000000
C     21.3930000000   32.5450000000   27.6860000000
H     22.3300000000   32.4070000000   28.2300000000
H     21.3860000000   33.4870000000   27.1320000000
H     20.6440000000   32.5940000000   28.4800000000
S     21.1160000000   31.1600000000   26.5580000000
C     20.6960000000   32.1380000000   25.0980000000
H     20.3130000000   31.4000000000   24.3890000000
H     19.9280000000   32.8910000000   25.2930000000
H     21.5890000000   32.6350000000   24.7100000000
O     19.7820000000   30.6070000000   26.9560000000
C     29.9500000000   34.1690000000   32.4960000000
H     30.0790000000   34.9650000000   33.2340000000
H     30.6330000000   34.4220000000   31.6800000000
H     28.8880000000   34.0760000000   32.2520000000
S     30.6370000000   32.6070000000   33.0900000000
C     29.3900000000   31.5040000000   32.3870000000
H     28.4330000000   32.0320000000   32.4280000000
H     29.5100000000   31.2530000000   31.3300000000
H     29.4420000000   30.6030000000   33.0040000000
O     30.1680000000   32.7100000000   34.5080000000
C     28.4670000000   27.8360000000   30.7700000000
H     28.0320000000   28.3730000000   29.9230000000
H     27.6490000000   27.4320000000   31.3720000000
H     29.0940000000   28.4860000000   31.3850000000
S     29.5250000000   26.5320000000   30.1030000000
C     30.6420000000   27.5360000000   29.0980000000
H     31.0950000000   28.2920000000   29.7460000000
H     31.3070000000   26.8110000000   28.6240000000
H     30.0280000000   28.0310000000   28.3410000000
O     28.5850000000   26.0990000000   29.0210000000
C     27.1620000000   21.3970000000   19.4400000000
H     26.8470000000   20.3510000000   19.4900000000
H     27.7320000000   21.6250000000   18.5360000000
H     27.7910000000   21.5340000000   20.3230000000
S     25.7010000000   22.4600000000   19.4590000000
C     24.5930000000   21.2180000000   20.1630000000
H     23.5240000000   21.3770000000   20.0020000000
H     24.7730000000   20.2820000000   19.6300000000
H     24.8750000000   21.1140000000   21.2140000000
O     25.4470000000   22.5070000000   17.9850000000
C     24.1790000000   35.1060000000   31.2910000000
H     23.4300000000   35.4550000000   32.0060000000
H     24.3120000000   35.7830000000   30.4430000000
H     23.8070000000   34.1360000000   30.9510000000
S     25.7190000000   34.8240000000   32.1930000000
C     26.1320000000   36.5830000000   32.1660000000
H     25.4060000000   37.1970000000   32.7050000000
H     27.0790000000   36.7630000000   32.6810000000
H     26.0840000000   37.0400000000   31.1740000000
O     26.6540000000   34.3770000000   31.1120000000
