252

C     19.3260000000   21.8990000000   28.3550000000
C     19.6810000000   20.4170000000   28.5580000000
C     19.3520000000   19.6030000000   27.2960000000
C     19.9730000000   20.1960000000   26.0200000000
C     19.5770000000   21.6670000000   25.8110000000
C     19.9640000000   22.4570000000   27.0720000000
H     19.6210000000   18.5690000000   27.5430000000
H     20.7550000000   20.3150000000   28.7570000000
H     18.2410000000   22.0140000000   28.2430000000
H     19.6190000000   22.4770000000   29.2400000000
H     21.0620000000   20.0710000000   26.0430000000
H     19.6270000000   19.7780000000   25.0670000000
H     19.9680000000   22.2800000000   24.9900000000
H     18.4850000000   21.6490000000   25.7100000000
H     21.0460000000   22.3700000000   27.2270000000
H     19.7940000000   23.5280000000   26.9070000000
H     18.2610000000   19.5180000000   27.2230000000
N     18.7660000000   19.8850000000   29.5670000000
H     17.7770000000   19.7210000000   29.4190000000
C     19.2220000000   19.1550000000   30.6440000000
H     18.4240000000   18.6700000000   31.2350000000
O     20.4040000000   19.0320000000   30.9140000000
C     22.8090000000   18.6760000000   28.6860000000
H     22.9800000000   18.0240000000   29.5470000000
H     23.1930000000   19.6360000000   29.0400000000
H     21.7310000000   18.6580000000   28.5030000000
S     23.6820000000   18.2610000000   27.1600000000
C     25.2290000000   17.6750000000   27.8880000000
H     25.6320000000   18.4500000000   28.5440000000
H     24.8840000000   16.8150000000   28.4680000000
H     25.8560000000   17.3820000000   27.0420000000
O     23.9880000000   19.6290000000   26.6340000000
C     22.2480000000   13.3050000000   29.5720000000
H     21.7510000000   14.2570000000   29.3630000000
H     23.3270000000   13.4750000000   29.6020000000
H     21.9010000000   12.6710000000   28.7520000000
S     21.4820000000   12.6130000000   31.0540000000
C     21.9980000000   13.7970000000   32.3180000000
H     23.0400000000   14.0110000000   32.0640000000
H     21.4360000000   14.7340000000   32.2660000000
H     21.7760000000   13.2000000000   33.2050000000
O     22.2120000000   11.3570000000   31.4180000000
C     18.4470000000   22.5960000000   37.1090000000
H     18.4670000000   21.6590000000   37.6710000000
H     18.9190000000   23.4170000000   37.6560000000
H     17.4210000000   22.8540000000   36.8350000000
S     19.3280000000   22.4440000000   35.5390000000
C     18.1380000000   23.3510000000   34.5250000000
H     18.6270000000   23.4720000000   33.5550000000
H     17.2230000000   22.7530000000   34.5120000000
H     17.9390000000   24.3200000000   34.9910000000
O     18.9370000000   21.0410000000   35.1900000000
C     15.7670000000   19.9900000000   33.7230000000
H     16.7600000000   19.9940000000   34.1790000000
H     15.2950000000   19.0040000000   33.7260000000
H     15.6900000000   20.3820000000   32.7060000000
S     14.6670000000   21.1320000000   34.5880000000
C     15.1800000000   20.8170000000   36.2920000000
H     14.8880000000   19.8090000000   36.5980000000
H     16.2650000000   20.9070000000   36.3860000000
H     14.6670000000   21.5420000000   36.9290000000
O     13.3590000000   20.4210000000   34.4360000000
C     14.6890000000   16.8060000000   29.6710000000
H     14.2900000000   16.0580000000   30.3610000000
H     13.9200000000   17.2150000000   29.0100000000
H     15.4590000000   16.3020000000   29.0820000000
S     15.3870000000   18.0700000000   30.7580000000
C     13.7810000000   18.8630000000   30.9900000000
H     13.8550000000   19.7050000000   31.6830000000
H     13.3990000000   19.1690000000   30.0130000000
H     13.1310000000   18.0800000000   31.3880000000
O     15.9680000000   19.1590000000   29.9110000000
C     21.9440000000   17.0300000000   21.9790000000
H     22.5950000000   16.1720000000   22.1620000000
H     21.8250000000   17.2620000000   20.9170000000
H     22.3790000000   17.9430000000   22.3940000000
S     20.3320000000   16.6050000000   22.6770000000
C     20.8030000000   16.7470000000   24.4160000000
H     21.6140000000   16.0240000000   24.5340000000
H     21.1550000000   17.7720000000   24.5540000000
H     19.9930000000   16.5650000000   25.1270000000
O     20.2090000000   15.1370000000   22.4130000000
C     25.4170000000   21.7720000000   28.4540000000
H     25.4010000000   21.2140000000   27.5150000000
H     26.0210000000   22.6830000000   28.4370000000
H     25.7840000000   21.1520000000   29.2760000000
S     23.7630000000   22.3850000000   28.8460000000
C     23.5680000000   23.2430000000   27.2680000000
H     23.6440000000   22.4990000000   26.4700000000
H     22.5950000000   23.7200000000   27.1280000000
H     24.3640000000   23.9750000000   27.1080000000
O     24.0230000000   23.4330000000   29.8830000000
C     21.2440000000   23.2380000000   31.7070000000
H     21.4710000000   23.5150000000   32.7400000000
H     20.6400000000   22.3280000000   31.6650000000
H     22.2270000000   23.0300000000   31.2770000000
S     20.5960000000   24.6430000000   30.7740000000
C     21.8710000000   25.8790000000   31.1090000000
H     22.7350000000   25.2960000000   30.7780000000
H     21.7430000000   26.8660000000   30.6590000000
H     21.9290000000   26.0050000000   32.1930000000
O     19.4860000000   25.0680000000   31.6840000000
C     19.9290000000   26.6310000000   27.6200000000
H     19.3950000000   26.7400000000   26.6720000000
H     19.6800000000   25.6330000000   27.9900000000
H     19.6530000000   27.3490000000   28.3950000000
S     21.6680000000   26.5370000000   27.1370000000
C     21.6910000000   28.2340000000   26.5160000000
H     21.1560000000   28.1540000000   25.5660000000
H     21.1350000000   28.8180000000   27.2540000000
H     22.7020000000   28.5990000000   26.3160000000
O     21.7740000000   25.7530000000   25.8660000000
C     12.1790000000   24.3500000000   28.2880000000
H     11.2300000000   24.7540000000   28.6520000000
H     13.0140000000   25.0520000000   28.3480000000
H     12.0010000000   23.9730000000   27.2770000000
S     12.6330000000   22.9700000000   29.3630000000
C     11.0640000000   22.1260000000   29.0580000000
H     10.9910000000   21.1970000000   29.6280000000
H     10.2280000000   22.7670000000   29.3470000000
H     11.0280000000   21.9880000000   27.9740000000
O     12.3340000000   23.5820000000   30.6960000000
C     16.3490000000   14.8730000000   33.7050000000
H     16.4510000000   13.8900000000   34.1720000000
H     16.8220000000   15.6530000000   34.3070000000
H     15.2700000000   15.0470000000   33.7070000000
S     17.0350000000   14.9820000000   32.0370000000
C     16.2230000000   13.5040000000   31.3870000000
H     16.4970000000   13.2170000000   30.3680000000
H     16.4520000000   12.6410000000   32.0160000000
H     15.1650000000   13.7760000000   31.4240000000
O     18.4440000000   14.4880000000   32.1500000000
C     23.5410000000   19.4750000000   32.2800000000
H     24.3990000000   20.1400000000   32.4110000000
H     22.9860000000   19.6800000000   31.3610000000
H     22.9370000000   19.5650000000   33.1870000000
S     24.2290000000   17.8090000000   32.1540000000
C     25.2890000000   17.7810000000   33.6170000000
H     25.8270000000   18.7310000000   33.6720000000
H     24.6180000000   17.6630000000   34.4720000000
H     26.0330000000   16.9810000000   33.5950000000
O     25.1540000000   17.8900000000   30.9800000000
C     20.0390000000   18.1550000000   34.5570000000
H     20.5620000000   19.1090000000   34.6610000000
H     19.4480000000   17.9790000000   33.6550000000
H     19.3890000000   18.1020000000   35.4340000000
S     21.2330000000   16.8390000000   34.8870000000
C     20.2080000000   15.3880000000   35.2180000000
H     19.7420000000   15.0190000000   34.3010000000
H     20.8330000000   14.5990000000   35.6440000000
H     19.3950000000   15.6820000000   35.8860000000
O     21.8000000000   17.1090000000   36.2460000000
C     22.2330000000   26.6230000000   22.4750000000
H     22.4410000000   25.6350000000   22.0580000000
H     22.9160000000   27.2970000000   21.9510000000
H     22.4850000000   26.5490000000   23.5360000000
S     20.5150000000   27.1190000000   22.2140000000
C     19.8250000000   25.6540000000   23.0170000000
H     18.7420000000   25.5360000000   22.9350000000
H     20.1900000000   24.7370000000   22.5480000000
H     19.9690000000   25.6190000000   24.1000000000
O     20.3530000000   26.7880000000   20.7630000000
C     25.5060000000   18.1880000000   23.8680000000
H     26.3590000000   18.1590000000   24.5510000000
H     24.8700000000   19.0740000000   23.9310000000
H     25.0440000000   17.1980000000   23.9150000000
S     26.1770000000   18.2170000000   22.1900000000
C     27.3800000000   16.9130000000   22.5340000000
H     28.2470000000   16.8230000000   21.8740000000
H     27.7230000000   17.2310000000   23.5220000000
H     26.8380000000   15.9730000000   22.6590000000
O     27.0090000000   19.4600000000   22.1330000000
C     21.3650000000   20.5350000000   20.3630000000
H     21.7850000000   19.5850000000   20.0240000000
H     21.4290000000   21.1920000000   19.4920000000
H     21.9680000000   20.8260000000   21.2280000000
S     19.6410000000   20.3930000000   20.8830000000
C     19.4960000000   22.1700000000   21.1780000000
H     20.3320000000   22.4720000000   21.8150000000
H     19.6510000000   22.6170000000   20.1930000000
H     18.4770000000   22.5050000000   21.3890000000
O     19.7180000000   19.7740000000   22.2440000000
C     16.4260000000   29.7630000000   24.2830000000
H     15.6240000000   30.2520000000   24.8430000000
H     16.9780000000   30.6220000000   23.8920000000
H     16.0880000000   29.1300000000   23.4590000000
S     17.4130000000   28.7480000000   25.4060000000
C     18.1530000000   30.1090000000   26.3370000000
H     18.7190000000   30.6390000000   25.5670000000
H     17.3980000000   30.8430000000   26.6310000000
H     18.8340000000   29.8450000000   27.1500000000
O     18.6840000000   28.3590000000   24.7190000000
C     25.1270000000   22.5040000000   23.9460000000
H     25.5460000000   22.3260000000   24.9390000000
H     25.4520000000   21.7110000000   23.2690000000
H     25.5300000000   23.4360000000   23.5400000000
S     23.3490000000   22.7200000000   23.7030000000
C     22.9510000000   20.9620000000   23.8200000000
H     23.1440000000   20.5800000000   24.8260000000
H     21.8640000000   20.9390000000   23.7090000000
H     23.4310000000   20.3220000000   23.0750000000
O     23.1390000000   22.9130000000   22.2340000000
C     15.4070000000   21.5480000000   27.3270000000
H     16.1790000000   21.3970000000   26.5680000000
H     15.2360000000   22.6110000000   27.5150000000
H     15.7620000000   21.0610000000   28.2390000000
S     13.9740000000   20.5560000000   26.8500000000
C     14.7790000000   18.9640000000   26.5590000000
H     14.0290000000   18.2220000000   26.2710000000
H     15.4990000000   19.1860000000   25.7680000000
H     15.3230000000   18.6320000000   27.4470000000
O     13.5590000000   21.0250000000   25.4900000000
C     17.1970000000   25.0900000000   26.1060000000
H     18.2100000000   25.0120000000   25.7040000000
H     17.1960000000   25.8630000000   26.8790000000
H     16.9760000000   24.1370000000   26.5930000000
S     16.1070000000   25.4250000000   24.7040000000
C     14.5200000000   24.9830000000   25.4460000000
H     14.6510000000   23.9300000000   25.7110000000
H     14.2690000000   25.5910000000   26.3180000000
H     13.6770000000   25.1600000000   24.7740000000
O     16.2790000000   24.1870000000   23.8800000000
C     18.4530000000   15.8350000000   28.8120000000
H     18.7770000000   14.8620000000   29.1890000000
H     19.2730000000   16.4940000000   28.5200000000
H     17.7540000000   16.4520000000   29.3820000000
S     17.6980000000   15.5870000000   27.1890000000
C     19.0550000000   14.5360000000   26.6250000000
H     19.2040000000   14.6660000000   25.5500000000
H     19.9790000000   14.8000000000   27.1470000000
H     18.7520000000   13.4930000000   26.7470000000
O     17.8920000000   16.8960000000   26.4890000000
C     16.6470000000   22.8200000000   31.0590000000
H     17.1990000000   22.1790000000   30.3670000000
H     17.0410000000   22.9430000000   32.0710000000
H     15.6540000000   22.3640000000   31.1030000000
S     16.7350000000   24.4590000000   30.3050000000
C     15.3640000000   24.9390000000   31.3800000000
H     15.1590000000   25.9960000000   31.1870000000
H     14.5520000000   24.2630000000   31.1020000000
H     15.6940000000   24.8530000000   32.4180000000
O     16.1270000000   24.3720000000   28.9400000000
C     16.9800000000   18.0680000000   23.5060000000
H     16.1960000000   17.8470000000   24.2350000000
H     17.1420000000   17.1330000000   22.9630000000
H     17.8980000000   18.3840000000   24.0070000000
S     16.5160000000   19.4420000000   22.4280000000
C     16.8270000000   20.7420000000   23.6430000000
H     17.8740000000   21.0390000000   23.7450000000
H     16.4990000000   21.6940000000   23.2170000000
H     16.3650000000   20.5850000000   24.6210000000
O     15.0680000000   19.3560000000   22.0550000000
