272

C     23.6590000000   15.8850000000   26.5200000000
C     22.2220000000   16.0480000000   27.0420000000
C     22.1300000000   17.1450000000   28.1150000000
C     22.5680000000   18.4940000000   27.5230000000
C     23.9600000000   18.4800000000   26.8700000000
C     24.3480000000   17.1980000000   26.1150000000
H     21.1180000000   17.3070000000   28.5080000000
H     21.5460000000   16.3040000000   26.2170000000
H     24.2130000000   15.4670000000   27.3700000000
H     23.8150000000   15.1400000000   25.7310000000
H     21.9250000000   18.7950000000   26.6870000000
H     22.5610000000   19.3000000000   28.2670000000
H     24.3130000000   19.3870000000   26.3650000000
H     24.5560000000   18.5790000000   27.7860000000
H     24.0900000000   17.3250000000   25.0560000000
H     25.4390000000   17.0970000000   26.1700000000
H     22.8940000000   16.8630000000   28.8500000000
N     21.8430000000   14.8030000000   27.7080000000
H     22.2410000000   14.5670000000   28.6090000000
C     20.6070000000   14.2300000000   27.4970000000
H     20.4010000000   13.3710000000   28.1610000000
O     19.8090000000   14.6600000000   26.6840000000
C     19.5400000000   17.4520000000   24.5980000000
H     19.0720000000   18.3250000000   25.0600000000
H     18.8700000000   17.2040000000   23.7720000000
H     19.8480000000   16.6280000000   25.2470000000
S     21.1530000000   18.0710000000   24.0700000000
C     20.5140000000   19.4430000000   23.0820000000
H     21.3560000000   20.0010000000   22.6650000000
H     19.9970000000   18.9840000000   22.2350000000
H     19.7840000000   20.0500000000   23.6240000000
O     21.5180000000   17.1990000000   22.9090000000
C     23.5080000000   22.4840000000   32.4230000000
H     23.6810000000   23.4810000000   32.8330000000
H     22.4550000000   22.2050000000   32.5160000000
H     24.0200000000   21.7470000000   33.0460000000
S     24.0270000000   22.1930000000   30.7170000000
C     23.6990000000   20.4310000000   30.9440000000
H     24.1100000000   20.0790000000   29.9950000000
H     24.0650000000   20.0290000000   31.8920000000
H     22.6270000000   20.2150000000   30.9610000000
O     25.5160000000   22.3240000000   30.8060000000
C     27.3000000000   20.0030000000   32.8570000000
H     26.6670000000   20.2560000000   33.7110000000
H     27.3910000000   20.8700000000   32.1980000000
H     26.8580000000   19.1610000000   32.3180000000
S     28.9630000000   19.5470000000   33.3980000000
C     29.4640000000   18.8990000000   31.7880000000
H     29.5670000000   19.7730000000   31.1390000000
H     30.3870000000   18.3570000000   32.0080000000
H     28.6250000000   18.3300000000   31.3780000000
O     28.8620000000   18.2560000000   34.1490000000
C     15.4140000000    9.3190000000   29.2200000000
H     16.2310000000    9.0430000000   28.5490000000
H     15.7120000000    9.2250000000   30.2670000000
H     14.6090000000    8.6270000000   28.9590000000
S     14.8940000000   11.0280000000   28.9410000000
C     16.0510000000   11.6840000000   30.1640000000
H     15.8280000000   11.1610000000   31.0980000000
H     17.0630000000   11.4670000000   29.8130000000
H     15.8070000000   12.7480000000   30.2350000000
O     13.7130000000   11.0320000000   29.8600000000
C     17.1880000000   14.8860000000   24.6240000000
H     16.6210000000   15.7900000000   24.3860000000
H     18.2370000000   15.1740000000   24.7310000000
H     17.2140000000   14.1960000000   23.7770000000
S     16.6040000000   14.1080000000   26.1460000000
C     17.2750000000   12.4860000000   25.7200000000
H     16.7390000000   12.1630000000   24.8230000000
H     18.3410000000   12.7150000000   25.6380000000
H     17.0530000000   11.8040000000   26.5450000000
O     15.1450000000   13.8670000000   25.9150000000
C     23.8060000000    6.8010000000   29.9360000000
H     22.7450000000    6.7230000000   29.6860000000
H     24.5680000000    6.2570000000   29.3720000000
H     23.9380000000    6.4190000000   30.9520000000
S     24.2850000000    8.5420000000   29.8810000000
C     22.9160000000    9.1910000000   30.8660000000
H     22.0220000000    8.9590000000   30.2820000000
H     22.9710000000    8.7560000000   31.8670000000
H     23.0920000000   10.2680000000   30.9420000000
O     23.9060000000    8.9210000000   28.4830000000
C     21.3350000000   12.2780000000   21.5210000000
H     20.4990000000   12.2280000000   20.8180000000
H     21.8490000000   13.2060000000   21.2580000000
H     21.8530000000   11.3360000000   21.3210000000
S     20.7680000000   12.2510000000   23.2360000000
C     21.5860000000   13.7720000000   23.7690000000
H     21.4770000000   14.5640000000   23.0240000000
H     21.2140000000   14.1470000000   24.7260000000
H     22.6520000000   13.5490000000   23.8610000000
O     21.7350000000   11.2850000000   23.8460000000
C     28.2350000000   15.8110000000   27.3120000000
H     27.6650000000   15.4760000000   26.4430000000
H     27.9530000000   16.8160000000   27.6360000000
H     29.2940000000   15.8480000000   27.0440000000
S     27.8590000000   14.7160000000   28.6990000000
C     26.9800000000   16.0070000000   29.6090000000
H     27.8200000000   16.6160000000   29.9520000000
H     26.3170000000   16.6030000000   28.9760000000
H     26.5110000000   15.4860000000   30.4470000000
O     29.2140000000   14.6580000000   29.3330000000
C     24.1970000000   19.9800000000   23.1140000000
H     24.3370000000   20.7820000000   22.3850000000
H     23.3270000000   19.3310000000   22.9860000000
H     24.0320000000   20.4590000000   24.0820000000
S     25.6890000000   18.9630000000   23.2000000000
C     26.8520000000   20.3410000000   23.0910000000
H     26.4010000000   21.0840000000   22.4290000000
H     26.9940000000   20.7530000000   24.0940000000
H     27.7690000000   19.9940000000   22.6080000000
O     25.6410000000   18.2180000000   21.9030000000
C     17.3740000000   15.0910000000   29.4060000000
H     17.9880000000   14.7000000000   28.5910000000
H     16.3400000000   14.7420000000   29.3420000000
H     17.5180000000   16.1730000000   29.4590000000
S     18.1730000000   14.4040000000   30.8740000000
C     16.9960000000   14.8960000000   32.1540000000
H     16.9210000000   15.9830000000   32.0660000000
H     16.0440000000   14.4120000000   31.9230000000
H     17.4290000000   14.7230000000   33.1420000000
O     19.3840000000   15.2800000000   30.9630000000
C     15.7340000000   19.5170000000   25.4290000000
H     16.3040000000   19.2170000000   24.5460000000
H     14.7050000000   19.6900000000   25.1070000000
H     16.0820000000   20.4130000000   25.9500000000
S     15.7300000000   18.0950000000   26.5440000000
C     14.3330000000   18.5010000000   27.6160000000
H     13.4690000000   18.8480000000   27.0420000000
H     14.1260000000   17.7350000000   28.3670000000
H     14.6980000000   19.3300000000   28.2280000000
O     16.9830000000   18.5310000000   27.2370000000
C     21.1500000000   18.3530000000   31.5700000000
H     21.4940000000   18.4590000000   30.5380000000
H     21.8310000000   18.6320000000   32.3790000000
H     20.8720000000   17.3090000000   31.7360000000
S     19.5870000000   19.2320000000   31.7940000000
C     19.0240000000   18.5960000000   30.1990000000
H     17.9770000000   18.8260000000   29.9870000000
H     19.4930000000   19.1050000000   29.3530000000
H     19.1680000000   17.5130000000   30.1660000000
O     19.9120000000   20.6440000000   31.4160000000
C     24.6410000000   12.3450000000   31.8570000000
H     25.4370000000   12.7940000000   32.4560000000
H     23.8160000000   12.1490000000   32.5460000000
H     24.9360000000   11.3780000000   31.4410000000
S     23.9630000000   13.3540000000   30.5190000000
C     23.0410000000   14.3110000000   31.7430000000
H     22.4670000000   15.0790000000   31.2190000000
H     22.3900000000   13.7230000000   32.3950000000
H     23.7800000000   14.7410000000   32.4240000000
O     22.9220000000   12.5080000000   29.8550000000
C     28.9440000000   19.3690000000   26.7360000000
H     28.8880000000   19.9330000000   25.8010000000
H     29.8740000000   19.5710000000   27.2740000000
H     28.8560000000   18.3190000000   26.4430000000
S     27.5270000000   19.9270000000   27.7080000000
C     28.1120000000   21.5510000000   28.2420000000
H     27.4740000000   21.8250000000   29.0860000000
H     29.1300000000   21.4680000000   28.6300000000
H     28.1100000000   22.3250000000   27.4690000000
O     27.7890000000   19.1040000000   28.9300000000
C     28.9400000000   16.9590000000   23.7700000000
H     28.6900000000   16.6990000000   22.7380000000
H     28.8690000000   16.0710000000   24.4030000000
H     28.3030000000   17.7550000000   24.1630000000
S     30.6510000000   17.5370000000   23.8550000000
C     31.3580000000   15.9620000000   23.3220000000
H     31.4340000000   15.1340000000   24.0310000000
H     30.8330000000   15.6480000000   22.4160000000
H     32.3860000000   16.2060000000   23.0410000000
O     31.0010000000   17.6250000000   25.3080000000
C     20.1580000000   11.7030000000   30.8350000000
H     20.3620000000   12.7150000000   31.1930000000
H     21.0390000000   11.1480000000   30.5040000000
H     19.4120000000   11.6440000000   30.0380000000
S     19.7090000000   10.7800000000   32.3230000000
C     18.8300000000    9.2930000000   31.7910000000
H     19.2350000000    8.8260000000   30.8900000000
H     18.9010000000    8.5770000000   32.6140000000
H     17.7800000000    9.5980000000   31.7990000000
O     18.6360000000   11.5250000000   33.0530000000
C     25.5580000000   14.7900000000   20.8090000000
H     25.8430000000   14.2630000000   19.8950000000
H     24.4670000000   14.8480000000   20.7820000000
H     26.0260000000   15.7700000000   20.9290000000
S     26.2050000000   13.8860000000   22.2340000000
C     25.4750000000   14.9900000000   23.4650000000
H     24.4770000000   15.3330000000   23.1810000000
H     25.5310000000   14.5180000000   24.4490000000
H     26.0440000000   15.9200000000   23.4010000000
O     27.6900000000   14.0530000000   22.1530000000
C     24.8780000000   24.9520000000   25.9830000000
H     24.9660000000   25.4170000000   24.9970000000
H     24.0960000000   25.5160000000   26.4980000000
H     25.7970000000   24.9480000000   26.5730000000
S     24.3290000000   23.2640000000   25.6460000000
C     24.1900000000   22.7480000000   27.3730000000
H     25.1510000000   22.9540000000   27.8510000000
H     23.3960000000   23.3600000000   27.8090000000
H     23.9550000000   21.7000000000   27.1700000000
O     25.6640000000   22.7300000000   25.2290000000
C     20.2820000000    8.0270000000   27.5160000000
H     21.0920000000    7.7360000000   26.8420000000
H     20.7570000000    8.4300000000   28.4140000000
H     19.6410000000    7.1840000000   27.7850000000
S     19.2440000000    9.3320000000   26.8200000000
C     20.6650000000   10.4460000000   26.7450000000
H     21.2650000000    9.8920000000   26.0190000000
H     20.2280000000   11.4070000000   26.4610000000
H     21.1370000000   10.5300000000   27.7270000000
O     18.5290000000    9.8680000000   28.0220000000
C     19.5630000000   21.0200000000   26.7000000000
H     19.6270000000   19.9410000000   26.5420000000
H     19.3770000000   21.2200000000   27.7590000000
H     18.7840000000   21.4600000000   26.0720000000
S     21.1440000000   21.8110000000   26.3280000000
C     20.6130000000   23.5090000000   26.6470000000
H     20.0400000000   23.8510000000   25.7820000000
H     19.9490000000   23.5500000000   27.5130000000
H     21.5180000000   24.1100000000   26.7700000000
O     21.2340000000   21.6910000000   24.8380000000
C     19.3180000000   26.0850000000   31.3080000000
H     19.8710000000   25.8810000000   32.2280000000
H     20.0020000000   26.6090000000   30.6340000000
H     18.3510000000   26.5560000000   31.4980000000
S     18.9560000000   24.4160000000   30.7200000000
C     20.6570000000   23.8150000000   30.6110000000
H     21.1300000000   24.5730000000   29.9820000000
H     21.1620000000   23.6200000000   31.5610000000
H     20.5530000000   22.9060000000   30.0140000000
O     18.5520000000   24.6470000000   29.2980000000
C     18.7150000000   15.0370000000   21.3930000000
H     19.6980000000   15.0930000000   20.9190000000
H     18.3220000000   16.0510000000   21.4970000000
H     18.7390000000   14.5060000000   22.3480000000
S     17.6510000000   14.0610000000   20.3060000000
C     17.3500000000   15.4490000000   19.1890000000
H     17.2880000000   16.3640000000   19.7850000000
H     18.2280000000   15.4590000000   18.5380000000
H     16.4010000000   15.1610000000   18.7290000000
O     16.3490000000   14.0640000000   21.0440000000
C     23.7860000000   11.8320000000   26.6070000000
H     23.0410000000   11.0620000000   26.3870000000
H     24.1260000000   11.7160000000   27.6390000000
H     23.4170000000   12.8600000000   26.5600000000
S     25.2320000000   11.8150000000   25.5240000000
C     25.7990000000   10.2620000000   26.2520000000
H     26.8510000000   10.1360000000   25.9810000000
H     25.7180000000   10.2920000000   27.3410000000
H     25.2040000000    9.4520000000   25.8220000000
O     26.1170000000   12.8060000000   26.2140000000
C     23.2620000000   18.9610000000   19.2160000000
H     23.3330000000   19.9880000000   19.5820000000
H     24.1040000000   18.3350000000   19.5220000000
H     23.0820000000   18.9000000000   18.1400000000
S     21.8560000000   18.2990000000   20.1380000000
C     21.8330000000   16.8340000000   19.0810000000
H     21.9060000000   17.0260000000   18.0080000000
H     22.7260000000   16.2970000000   19.4120000000
H     20.9190000000   16.2860000000   19.3270000000
O     20.7180000000   19.2180000000   19.8240000000
C     24.6690000000   10.5570000000   21.6970000000
H     24.4140000000    9.5600000000   21.3290000000
H     23.8370000000   10.9120000000   22.3100000000
H     24.9130000000   11.0920000000   20.7760000000
S     26.1880000000   10.2380000000   22.6230000000
C     27.0570000000    9.5790000000   21.1820000000
H     27.3040000000   10.4390000000   20.5530000000
H     27.9900000000    9.1530000000   21.5590000000
H     26.4520000000    8.7840000000   20.7400000000
O     25.8360000000    8.9530000000   23.3050000000
