272

C     19.3670000000   20.7770000000   27.2700000000
C     19.8860000000   19.4560000000   27.8620000000
C     20.8070000000   18.7490000000   26.8530000000
C     21.9770000000   19.6200000000   26.3680000000
C     21.3940000000   20.9070000000   25.7610000000
C     20.4850000000   21.6830000000   26.7270000000
H     21.2020000000   17.8360000000   27.3160000000
H     20.4240000000   19.5950000000   28.8070000000
H     18.7170000000   20.4800000000   26.4380000000
H     18.7650000000   21.3070000000   28.0180000000
H     22.6760000000   19.8690000000   27.1750000000
H     22.5220000000   18.9240000000   25.7190000000
H     22.1460000000   21.6040000000   25.3710000000
H     20.8110000000   20.5410000000   24.9070000000
H     21.0800000000   22.1110000000   27.5430000000
H     20.1610000000   22.4700000000   26.0350000000
H     20.1400000000   18.4560000000   26.0330000000
N     18.7160000000   18.6400000000   28.1810000000
H     18.2740000000   18.2650000000   27.3510000000
C     18.0180000000   18.5840000000   29.3690000000
H     17.0490000000   18.0760000000   29.2090000000
O     18.2920000000   19.0620000000   30.4550000000
C     23.4940000000   20.1030000000   22.9900000000
H     23.2520000000   19.2440000000   23.6210000000
H     23.0200000000   20.9860000000   23.4260000000
H     23.2500000000   19.9590000000   21.9340000000
S     25.2420000000   20.5560000000   23.0510000000
C     25.2390000000   20.9560000000   24.8130000000
H     24.6480000000   21.8760000000   24.7880000000
H     24.7450000000   20.1330000000   25.3360000000
H     26.2620000000   21.0810000000   25.1760000000
O     25.3770000000   21.8360000000   22.2870000000
C     29.3600000000   19.1190000000   24.7040000000
H     28.6380000000   19.2040000000   25.5210000000
H     30.3730000000   19.0020000000   25.0960000000
H     29.2420000000   19.9020000000   23.9510000000
S     28.8420000000   17.5010000000   24.0900000000
C     30.2010000000   17.2580000000   22.9250000000
H     30.5010000000   18.2100000000   22.4790000000
H     31.1170000000   16.8480000000   23.3580000000
H     29.8630000000   16.5980000000   22.1220000000
O     27.6130000000   17.8230000000   23.2980000000
C     16.3510000000   19.4290000000   33.0170000000
H     17.2640000000   19.9230000000   32.6750000000
H     16.4140000000   18.9400000000   33.9920000000
H     16.0440000000   18.6990000000   32.2630000000
S     15.1180000000   20.7370000000   33.2060000000
C     15.2350000000   20.9350000000   34.9980000000
H     16.2490000000   21.2760000000   35.2220000000
H     14.4400000000   21.6220000000   35.3010000000
H     15.0370000000   19.9750000000   35.4810000000
O     13.7160000000   20.2360000000   33.0460000000
C     11.6480000000   13.5250000000   26.2830000000
H     12.0130000000   13.1950000000   25.3070000000
H     11.3470000000   12.6170000000   26.8110000000
H     10.8940000000   14.3130000000   26.2140000000
S     12.8700000000   14.5320000000   27.1540000000
C     13.9470000000   13.1550000000   27.6140000000
H     14.2950000000   12.6350000000   26.7180000000
H     14.7420000000   13.5310000000   28.2630000000
H     13.3910000000   12.5230000000   28.3110000000
O     12.3090000000   14.8390000000   28.5080000000
C     14.1910000000   17.7930000000   28.0720000000
H     14.9280000000   17.9380000000   27.2780000000
H     14.3210000000   16.8160000000   28.5460000000
H     13.1650000000   17.9330000000   27.7240000000
S     14.3170000000   19.0560000000   29.3580000000
C     12.6750000000   18.9270000000   30.1010000000
H     12.8260000000   18.2870000000   30.9740000000
H     12.2380000000   19.8630000000   30.4600000000
H     11.9370000000   18.5250000000   29.4020000000
O     14.1940000000   20.3010000000   28.5340000000
C     20.4580000000   12.9240000000   22.5530000000
H     21.3700000000   13.4920000000   22.3470000000
H     20.4320000000   11.8340000000   22.6200000000
H     19.5620000000   13.2410000000   22.0130000000
S     19.9560000000   13.3290000000   24.2410000000
C     19.8990000000   15.1250000000   24.0530000000
H     19.3980000000   15.4970000000   23.1560000000
H     19.4090000000   15.5340000000   24.9400000000
H     20.9140000000   15.5210000000   23.9640000000
O     21.2670000000   13.2240000000   24.9570000000
C     23.6180000000   23.6490000000   28.3790000000
H     24.3080000000   24.3260000000   27.8690000000
H     24.0880000000   22.6660000000   28.3010000000
H     22.7450000000   23.7110000000   27.7240000000
S     23.1060000000   24.2580000000   30.0020000000
C     24.7910000000   24.7590000000   30.4210000000
H     25.5030000000   23.9530000000   30.2290000000
H     24.8870000000   25.6090000000   29.7410000000
H     24.8950000000   25.1190000000   31.4480000000
O     22.8730000000   23.0250000000   30.8190000000
C     28.6380000000   21.3270000000   29.2010000000
H     29.2710000000   21.0290000000   28.3600000000
H     28.8360000000   22.3970000000   29.3110000000
H     28.9140000000   20.7980000000   30.1170000000
S     26.8680000000   21.0880000000   28.9330000000
C     26.8800000000   19.3660000000   28.3850000000
H     27.2340000000   18.7330000000   29.2020000000
H     25.8400000000   19.0630000000   28.2380000000
H     27.5040000000   19.3650000000   27.4870000000
O     26.4750000000   21.9930000000   27.8070000000
C     19.7860000000   22.0450000000   32.7650000000
H     19.8640000000   22.6790000000   33.6520000000
H     19.5480000000   21.0490000000   33.1460000000
H     20.6900000000   21.9250000000   32.1630000000
S     18.4470000000   22.6930000000   31.7380000000
C     19.4170000000   24.1910000000   31.4510000000
H     20.2160000000   23.9770000000   30.7370000000
H     18.7890000000   25.0470000000   31.1920000000
H     19.7530000000   24.4290000000   32.4630000000
O     17.4260000000   23.0060000000   32.7870000000
C     19.8580000000   25.5360000000   26.7640000000
H     20.0070000000   25.5980000000   25.6830000000
H     20.0690000000   24.5410000000   27.1650000000
H     18.8640000000   25.9610000000   26.9260000000
S     21.0970000000   26.6720000000   27.4280000000
C     20.6300000000   28.2020000000   26.5860000000
H     19.6140000000   28.4360000000   26.9150000000
H     21.3110000000   28.9700000000   26.9620000000
H     20.6930000000   28.0360000000   25.5080000000
O     22.3460000000   26.2040000000   26.7500000000
C     14.1740000000   15.9610000000   32.1890000000
H     14.7100000000   15.9180000000   33.1400000000
H     14.4980000000   16.8600000000   31.6590000000
H     13.0940000000   15.8460000000   32.3110000000
S     14.8200000000   14.5730000000   31.2290000000
C     14.9260000000   13.5420000000   32.7100000000
H     15.4880000000   13.8990000000   33.5760000000
H     13.8970000000   13.2780000000   32.9680000000
H     15.3150000000   12.5980000000   32.3200000000
O     16.1870000000   15.0450000000   30.8420000000
C     22.0510000000   19.6310000000   30.9490000000
H     22.2220000000   20.2720000000   30.0800000000
H     20.9980000000   19.4040000000   31.1330000000
H     22.4110000000   20.2860000000   31.7460000000
S     22.9570000000   18.0720000000   30.8230000000
C     24.5330000000   18.8850000000   31.1700000000
H     25.3520000000   18.1660000000   31.0790000000
H     24.8570000000   19.6680000000   30.4800000000
H     24.3950000000   19.2510000000   32.1900000000
O     22.8460000000   17.8120000000   29.3530000000
C     19.2370000000   15.4900000000   34.9770000000
H     18.6290000000   15.1560000000   35.8220000000
H     18.9960000000   14.8280000000   34.1420000000
H     20.3210000000   15.4720000000   35.1160000000
S     18.8940000000   17.2170000000   34.5680000000
C     19.5090000000   17.2150000000   32.8680000000
H     18.9510000000   16.4560000000   32.3140000000
H     19.3730000000   18.1880000000   32.3910000000
H     20.5460000000   16.8690000000   32.8910000000
O     19.9400000000   18.0230000000   35.2740000000
C     22.3940000000   15.6590000000   20.7620000000
H     22.5020000000   16.3940000000   19.9600000000
H     21.8750000000   14.7730000000   20.3890000000
H     21.8490000000   15.9420000000   21.6670000000
S     24.0470000000   15.1600000000   21.2950000000
C     24.7480000000   16.7550000000   20.8180000000
H     25.7220000000   16.7330000000   21.3140000000
H     24.7620000000   16.8350000000   19.7280000000
H     24.1350000000   17.5200000000   21.3010000000
O     24.5460000000   14.2240000000   20.2390000000
C     20.2900000000   18.6300000000   21.5080000000
H     21.1270000000   18.9000000000   22.1570000000
H     19.3840000000   18.9480000000   22.0300000000
H     20.3740000000   17.5760000000   21.2310000000
S     20.4710000000   19.6120000000   20.0020000000
C     19.0820000000   18.8540000000   19.1290000000
H     19.2950000000   17.7830000000   19.0870000000
H     18.1290000000   19.0780000000   19.6150000000
H     19.1710000000   19.3360000000   18.1520000000
O     21.5870000000   18.9120000000   19.2920000000
C     17.2710000000   29.0280000000   21.9910000000
H     16.2640000000   28.6020000000   22.0000000000
H     17.1830000000   29.9180000000   22.6190000000
H     17.5990000000   29.1910000000   20.9610000000
S     18.3020000000   27.7810000000   22.7950000000
C     17.3280000000   27.6110000000   24.3080000000
H     17.6880000000   26.6720000000   24.7360000000
H     17.4670000000   28.4940000000   24.9370000000
H     16.2930000000   27.4130000000   24.0180000000
O     19.5370000000   28.4970000000   23.2460000000
C     21.8850000000   25.4620000000   23.5470000000
H     21.0320000000   24.8060000000   23.7400000000
H     22.2770000000   25.9780000000   24.4270000000
H     21.5470000000   26.2600000000   22.8810000000
S     23.2150000000   24.5230000000   22.7620000000
C     24.4370000000   24.7090000000   24.0800000000
H     23.9890000000   24.7760000000   25.0750000000
H     25.1240000000   23.8600000000   24.0430000000
H     24.9320000000   25.6590000000   23.8650000000
O     23.7600000000   25.4770000000   21.7440000000
C     23.6480000000   15.0540000000   25.7000000000
H     24.5330000000   14.7250000000   26.2510000000
H     23.0020000000   15.5740000000   26.4120000000
H     23.2500000000   14.1310000000   25.2700000000
S     24.2090000000   16.1510000000   24.3780000000
C     25.2060000000   17.3110000000   25.3390000000
H     24.5260000000   17.8260000000   26.0230000000
H     25.9480000000   16.8090000000   25.9640000000
H     25.6640000000   18.0550000000   24.6820000000
O     23.0040000000   16.9680000000   24.0300000000
C     15.6680000000   19.1140000000   24.4260000000
H     16.5330000000   18.6120000000   24.8650000000
H     15.0560000000   19.6810000000   25.1320000000
H     14.9740000000   18.5080000000   23.8380000000
S     16.5980000000   20.1310000000   23.2570000000
C     15.2220000000   21.1790000000   22.7320000000
H     14.8470000000   21.6960000000   23.6190000000
H     15.6340000000   21.9730000000   22.1030000000
H     14.5740000000   20.5640000000   22.1030000000
O     16.8780000000   19.2160000000   22.1050000000
C     18.0330000000   24.5630000000   21.3380000000
H     17.4010000000   25.4390000000   21.5060000000
H     18.8660000000   24.8360000000   20.6840000000
H     17.3530000000   23.9150000000   20.7790000000
S     18.5780000000   23.8420000000   22.9020000000
C     19.2220000000   22.3430000000   22.1250000000
H     20.1530000000   22.5310000000   21.5840000000
H     19.4030000000   21.4930000000   22.7880000000
H     18.3830000000   21.9950000000   21.5170000000
O     17.2540000000   23.4740000000   23.4970000000
C     19.1430000000   14.6910000000   28.1310000000
H     19.9220000000   14.9480000000   27.4080000000
H     19.3740000000   15.2750000000   29.0260000000
H     19.1500000000   13.6380000000   28.4250000000
S     17.5420000000   15.2910000000   27.5470000000
C     17.2170000000   13.7320000000   26.6930000000
H     16.4500000000   13.8990000000   25.9310000000
H     18.1880000000   13.3830000000   26.3340000000
H     16.9840000000   13.0330000000   27.5000000000
O     17.8360000000   16.2750000000   26.4580000000
C     16.0390000000   22.9790000000   27.0790000000
H     15.3150000000   22.1620000000   27.0090000000
H     15.4600000000   23.8820000000   26.8710000000
H     16.7990000000   22.9130000000   26.2960000000
S     16.9230000000   23.1390000000   28.6470000000
C     15.4010000000   23.4100000000   29.5830000000
H     15.7600000000   23.6250000000   30.5920000000
H     14.8390000000   24.2660000000   29.2010000000
H     14.7800000000   22.5120000000   29.5350000000
O     17.6350000000   24.4550000000   28.6900000000
C     23.8720000000   11.1140000000   26.6990000000
H     24.2680000000   10.1300000000   26.4350000000
H     22.8930000000   11.3230000000   26.2580000000
H     24.5190000000   11.9680000000   26.4870000000
S     23.5040000000   11.1320000000   28.4680000000
C     22.2060000000   12.3790000000   28.3170000000
H     22.6780000000   13.3630000000   28.2530000000
H     21.5480000000   12.1240000000   27.4830000000
H     21.7140000000   12.2750000000   29.2880000000
O     24.5840000000   11.9070000000   29.1570000000
C     10.5120000000   19.1220000000   25.8590000000
H      9.9090000000   19.6580000000   25.1220000000
H     10.6850000000   18.0580000000   25.6750000000
H     10.0670000000   19.1230000000   26.8580000000
S     12.1290000000   19.9190000000   25.7340000000
C     11.7280000000   21.4610000000   26.5870000000
H     10.8180000000   21.8950000000   26.1640000000
H     11.5350000000   21.2210000000   27.6360000000
H     12.5520000000   22.1720000000   26.4930000000
O     12.3430000000   20.3200000000   24.3070000000
C     27.5500000000   13.8820000000   29.5810000000
H     26.6230000000   13.3030000000   29.5710000000
H     28.0720000000   13.9370000000   28.6220000000
H     28.1230000000   13.4000000000   30.3770000000
S     26.9230000000   15.5150000000   30.0310000000
C     25.7350000000   15.5240000000   28.6690000000
H     25.0010000000   14.7460000000   28.8920000000
H     25.2300000000   16.4900000000   28.5920000000
H     26.1570000000   15.2160000000   27.7090000000
O     28.1080000000   16.3650000000   29.6900000000
