322

C     24.4570000000   17.9570000000   28.4380000000
C     25.2660000000   18.1760000000   27.1490000000
C     24.8870000000   19.5420000000   26.5540000000
C     25.0970000000   20.6280000000   27.6220000000
C     24.2280000000   20.4260000000   28.8740000000
C     24.5470000000   19.0600000000   29.5050000000
H     25.4330000000   19.7340000000   25.6230000000
H     26.3320000000   18.2710000000   27.3880000000
H     23.4350000000   17.5840000000   28.2980000000
H     24.9310000000   17.1110000000   28.9510000000
H     26.1450000000   20.5220000000   27.9270000000
H     24.9390000000   21.6390000000   27.2250000000
H     24.4530000000   21.2020000000   29.6160000000
H     23.1850000000   20.4510000000   28.5340000000
H     25.5710000000   19.1600000000   29.8840000000
H     23.8790000000   18.8280000000   30.3430000000
H     23.8630000000   19.4930000000   26.1620000000
N     25.0320000000   17.0690000000   26.2240000000
H     24.1270000000   16.8530000000   25.8240000000
C     26.0550000000   16.1670000000   26.0160000000
H     25.6950000000   15.4380000000   25.2680000000
O     27.1560000000   16.2040000000   26.5370000000
C     20.9520000000   19.2750000000   28.0750000000
H     21.6150000000   19.2840000000   27.2060000000
H     21.5160000000   19.3990000000   29.0030000000
H     20.4370000000   18.3120000000   28.0410000000
S     19.7930000000   20.6300000000   27.7830000000
C     21.0340000000   21.9430000000   27.7360000000
H     21.4150000000   22.1350000000   28.7420000000
H     21.7790000000   21.5960000000   27.0170000000
H     20.5380000000   22.8220000000   27.3160000000
O     19.1760000000   20.9310000000   29.1140000000
C     17.4470000000   26.4890000000   27.1950000000
H     18.3570000000   27.0830000000   27.0780000000
H     17.0340000000   26.3910000000   26.1880000000
H     16.7440000000   26.9170000000   27.9140000000
S     17.7690000000   24.8170000000   27.8010000000
C     18.3890000000   25.2180000000   29.4500000000
H     19.0910000000   24.4170000000   29.6980000000
H     18.9220000000   26.1520000000   29.2570000000
H     17.5080000000   25.3860000000   30.0750000000
O     19.0610000000   24.5740000000   27.0850000000
C     19.1610000000   19.9370000000   23.9790000000
H     19.7910000000   19.0960000000   23.6760000000
H     18.6500000000   19.8380000000   24.9400000000
H     18.4590000000   20.0870000000   23.1550000000
S     20.3470000000   21.2920000000   24.1290000000
C     20.8070000000   21.2710000000   22.3820000000
H     21.4440000000   22.0620000000   21.9780000000
H     21.2720000000   20.3170000000   22.1200000000
H     19.8500000000   21.2990000000   21.8540000000
O     21.5320000000   20.6270000000   24.7570000000
C     29.1950000000   17.4170000000   28.9830000000
H     30.1440000000   17.1120000000   29.4330000000
H     28.5640000000   17.7890000000   29.7940000000
H     28.7750000000   16.6180000000   28.3670000000
S     29.3890000000   18.7750000000   27.8080000000
C     30.4160000000   17.7320000000   26.7480000000
H     31.1050000000   17.0940000000   27.3070000000
H     29.7800000000   17.1610000000   26.0670000000
H     30.9870000000   18.5120000000   26.2380000000
O     30.3420000000   19.6270000000   28.5870000000
C     22.8180000000   24.6220000000   33.5390000000
H     23.0190000000   23.5800000000   33.8020000000
H     23.7180000000   25.1630000000   33.2370000000
H     22.1640000000   25.0840000000   34.2830000000
S     21.8890000000   24.4550000000   31.9990000000
C     20.5440000000   23.4270000000   32.6300000000
H     19.8990000000   24.0350000000   33.2690000000
H     20.0310000000   23.1160000000   31.7160000000
H     21.0370000000   22.6030000000   33.1520000000
O     22.7170000000   23.6070000000   31.0850000000
C     28.8750000000    8.9610000000   27.8860000000
H     29.5490000000    8.3400000000   27.2900000000
H     29.2210000000    9.0770000000   28.9160000000
H     27.8810000000    8.5120000000   27.9450000000
S     28.6360000000   10.4830000000   26.9410000000
C     27.6050000000    9.7750000000   25.6370000000
H     26.6330000000    9.6330000000   26.1170000000
H     27.5960000000   10.4780000000   24.7990000000
H     28.0950000000    8.8590000000   25.2970000000
O     29.9140000000   11.0050000000   26.3610000000
C     29.3350000000   22.5480000000   28.7700000000
H     30.2190000000   22.4950000000   28.1300000000
H     29.5280000000   23.0860000000   29.7020000000
H     29.0440000000   21.5210000000   29.0040000000
S     28.0020000000   23.1550000000   27.7120000000
C     28.6070000000   24.8570000000   27.7670000000
H     27.8060000000   25.4430000000   27.3070000000
H     28.7310000000   25.1140000000   28.8220000000
H     29.5640000000   24.9560000000   27.2470000000
O     26.8460000000   23.3010000000   28.6520000000
C     23.6500000000   19.6240000000   35.4300000000
H     24.0580000000   20.4530000000   34.8460000000
H     23.8800000000   18.7220000000   34.8570000000
H     22.5710000000   19.7060000000   35.5780000000
S     24.5640000000   19.5770000000   36.9880000000
C     26.1410000000   19.2390000000   36.1720000000
H     26.9190000000   18.9640000000   36.8890000000
H     25.9040000000   18.4060000000   35.5060000000
H     26.4410000000   20.1420000000   35.6350000000
O     24.1310000000   18.1860000000   37.3340000000
C     24.4100000000   14.8610000000   35.7160000000
H     24.5660000000   15.9400000000   35.7930000000
H     24.2240000000   14.3970000000   36.6880000000
H     25.2090000000   14.4130000000   35.1190000000
S     22.8940000000   14.6240000000   34.7610000000
C     21.8180000000   15.3740000000   36.0030000000
H     22.2180000000   15.1290000000   36.9900000000
H     21.9190000000   16.4620000000   35.9630000000
H     20.7720000000   15.0950000000   35.8480000000
O     22.5950000000   13.1680000000   34.9350000000
C     20.9420000000   17.3040000000   32.9570000000
H     21.8430000000   17.5930000000   33.5040000000
H     20.7690000000   16.3490000000   33.4580000000
H     21.0380000000   17.1050000000   31.8860000000
S     19.5350000000   18.2640000000   33.5590000000
C     19.8550000000   19.6090000000   32.3970000000
H     19.6010000000   19.3870000000   31.3570000000
H     19.2900000000   20.4710000000   32.7600000000
H     20.9300000000   19.8020000000   32.4510000000
O     20.1900000000   18.7330000000   34.8210000000
C     17.9310000000   17.6760000000   29.8450000000
H     18.3540000000   16.9350000000   30.5300000000
H     18.5300000000   18.5800000000   29.7080000000
H     16.9970000000   18.0490000000   30.2710000000
S     17.4820000000   16.7950000000   28.3330000000
C     16.6220000000   15.4370000000   29.1580000000
H     17.3620000000   14.8900000000   29.7480000000
H     15.8580000000   15.7270000000   29.8840000000
H     16.2030000000   14.7390000000   28.4280000000
O     18.8220000000   16.2890000000   27.8980000000
C     25.1700000000   20.6400000000   32.3940000000
H     24.1200000000   20.3420000000   32.4430000000
H     25.7270000000   20.4080000000   31.4820000000
H     25.7460000000   20.1280000000   33.1690000000
S     25.5030000000   22.3730000000   32.7830000000
C     27.1360000000   22.5720000000   32.0350000000
H     27.3810000000   23.6320000000   31.9290000000
H     27.9430000000   22.0850000000   32.5880000000
H     27.1610000000   22.1140000000   31.0430000000
O     25.8330000000   22.3010000000   34.2420000000
C     28.0020000000   14.3260000000   22.0730000000
H     27.2710000000   13.5760000000   22.3860000000
H     27.6320000000   15.2810000000   22.4530000000
H     28.0690000000   14.3380000000   20.9820000000
S     29.6340000000   13.9250000000   22.7380000000
C     29.1940000000   14.1310000000   24.4780000000
H     29.9700000000   13.6990000000   25.1150000000
H     29.1460000000   15.1640000000   24.8300000000
H     28.1800000000   13.7650000000   24.6600000000
O     30.4370000000   15.1740000000   22.5450000000
C     31.1980000000   12.4900000000   29.0980000000
H     31.8760000000   13.2520000000   28.7060000000
H     31.5540000000   12.0570000000   30.0360000000
H     31.0750000000   11.6880000000   28.3660000000
S     29.5570000000   13.1330000000   29.4970000000
C     29.2040000000   13.9860000000   27.9440000000
H     29.3570000000   13.2160000000   27.1830000000
H     28.2240000000   14.4690000000   27.9760000000
H     29.9920000000   14.7080000000   27.7140000000
O     29.8120000000   14.2510000000   30.4590000000
C     25.3310000000   16.7970000000   18.1330000000
H     25.8660000000   17.3050000000   18.9400000000
H     25.4890000000   17.3890000000   17.2270000000
H     24.3270000000   16.6740000000   18.5480000000
S     26.1890000000   15.2270000000   17.8840000000
C     25.4270000000   14.3400000000   19.2610000000
H     25.6930000000   13.2980000000   19.0660000000
H     25.8230000000   14.8110000000   20.1640000000
H     24.3550000000   14.5540000000   19.2440000000
O     27.5450000000   15.3640000000   18.5040000000
C     26.4970000000   27.7430000000   24.4620000000
H     25.8030000000   27.2530000000   23.7740000000
H     26.3130000000   27.5260000000   25.5170000000
H     26.3350000000   28.8040000000   24.2540000000
S     28.1790000000   27.1350000000   24.2040000000
C     27.6130000000   25.4220000000   24.1070000000
H     27.1240000000   25.1310000000   23.1740000000
H     28.5140000000   24.8610000000   24.3690000000
H     27.0330000000   25.2930000000   25.0250000000
O     28.8570000000   27.2740000000   25.5320000000
C     30.8360000000   18.1130000000   33.2180000000
H     30.2990000000   17.2030000000   33.4960000000
H     30.6330000000   18.3450000000   32.1690000000
H     31.9040000000   17.9040000000   33.3120000000
S     30.2390000000   19.2940000000   34.4490000000
C     30.8760000000   18.5420000000   35.9630000000
H     30.4960000000   17.5250000000   36.0860000000
H     31.9480000000   18.3670000000   35.8400000000
H     30.7660000000   19.1770000000   36.8460000000
O     28.7900000000   19.0060000000   34.6860000000
C     23.8970000000   24.0820000000   27.9970000000
H     24.4160000000   23.2110000000   28.4050000000
H     22.9850000000   24.2320000000   28.5800000000
H     23.6170000000   23.9150000000   26.9540000000
S     24.8930000000   25.5790000000   27.8140000000
C     24.0600000000   26.4770000000   29.1420000000
H     24.1220000000   27.5590000000   29.0000000000
H     23.0090000000   26.1800000000   29.1860000000
H     24.5300000000   26.0700000000   30.0410000000
O     24.3330000000   26.2250000000   26.5850000000
C     20.2380000000   18.4010000000   20.2770000000
H     21.1060000000   18.7000000000   20.8710000000
H     20.5010000000   18.2050000000   19.2340000000
H     19.4430000000   19.1500000000   20.2500000000
S     19.6420000000   16.8580000000   21.0060000000
C     18.2640000000   16.8290000000   19.8370000000
H     17.5640000000   16.0360000000   20.1120000000
H     17.7720000000   17.8040000000   19.8900000000
H     18.6770000000   16.6850000000   18.8360000000
O     18.9810000000   17.2440000000   22.2930000000
C     23.5780000000   18.7270000000   23.0660000000
H     24.3040000000   19.4550000000   23.4380000000
H     22.8560000000   19.2280000000   22.4170000000
H     23.0590000000   18.2790000000   23.9170000000
S     24.4980000000   17.5470000000   22.0520000000
C     23.1600000000   16.5330000000   21.3840000000
H     22.3130000000   16.6040000000   22.0720000000
H     22.8710000000   16.9040000000   20.3980000000
H     23.4950000000   15.5020000000   21.2440000000
O     25.0220000000   16.6440000000   23.1240000000
C     22.9880000000   25.4130000000   23.6540000000
H     23.9320000000   25.9610000000   23.5910000000
H     22.3060000000   25.9700000000   23.0070000000
H     22.5180000000   25.3910000000   24.6410000000
S     23.2410000000   23.7540000000   22.9860000000
C     23.7630000000   23.0510000000   24.5670000000
H     24.5560000000   23.6610000000   25.0080000000
H     22.9270000000   22.8810000000   25.2510000000
H     24.3220000000   22.1430000000   24.3270000000
O     24.5490000000   23.8460000000   22.2640000000
C     21.0740000000   14.8300000000   29.9610000000
H     21.8530000000   14.8990000000   30.7240000000
H     20.7220000000   15.8510000000   29.7940000000
H     20.1720000000   14.3440000000   30.3420000000
S     21.9550000000   14.0500000000   28.5890000000
C     20.4260000000   13.4070000000   27.8700000000
H     19.8070000000   14.2020000000   27.4490000000
H     20.6600000000   12.8150000000   26.9820000000
H     19.8720000000   12.7930000000   28.5850000000
O     22.6690000000   12.8730000000   29.1770000000
C     28.7570000000   17.7040000000   21.0880000000
H     29.5840000000   18.1630000000   21.6350000000
H     27.8730000000   17.7940000000   21.7240000000
H     28.9710000000   16.6370000000   20.9860000000
S     28.4820000000   18.3840000000   19.4360000000
C     30.2410000000   18.4940000000   19.0380000000
H     30.7910000000   18.9250000000   19.8790000000
H     30.5180000000   17.4540000000   18.8500000000
H     30.3210000000   19.1000000000   18.1320000000
O     28.1360000000   19.8370000000   19.5260000000
C     27.9150000000   16.1670000000   31.9830000000
H     28.7120000000   16.9140000000   31.9490000000
H     28.3340000000   15.1570000000   32.0060000000
H     27.2390000000   16.3210000000   31.1380000000
S     27.0510000000   16.6390000000   33.4980000000
C     28.0950000000   15.8040000000   34.7140000000
H     28.4270000000   14.8540000000   34.2860000000
H     29.0310000000   16.3560000000   34.8260000000
H     27.5900000000   15.5570000000   35.6520000000
O     25.8180000000   15.8070000000   33.3340000000
C     28.4740000000   19.8050000000   24.0000000000
H     28.8100000000   19.4970000000   24.9930000000
H     27.7450000000   19.0880000000   23.6120000000
H     29.2860000000   20.0030000000   23.2950000000
S     27.6360000000   21.4050000000   24.0310000000
C     27.2010000000   21.4690000000   22.2780000000
H     26.8910000000   22.4960000000   22.0730000000
H     28.0570000000   21.1590000000   21.6740000000
H     26.4150000000   20.7240000000   22.1270000000
O     28.7450000000   22.4030000000   24.1610000000
C     33.0150000000   14.7790000000   24.3490000000
H     33.4780000000   14.3410000000   23.4610000000
H     32.0490000000   14.2910000000   24.5020000000
H     32.8940000000   15.8490000000   24.1600000000
S     33.9230000000   14.4750000000   25.8810000000
C     33.4590000000   12.7480000000   26.1370000000
H     33.8370000000   12.4100000000   27.1050000000
H     32.3750000000   12.6170000000   26.0940000000
H     33.9270000000   12.1920000000   25.3200000000
O     33.0910000000   15.1130000000   26.9500000000
C     25.4750000000   13.8730000000   30.1870000000
H     26.4720000000   14.3010000000   30.3200000000
H     25.0890000000   13.9320000000   29.1660000000
H     24.7520000000   14.3680000000   30.8400000000
S     25.5930000000   12.1630000000   30.7620000000
C     26.1680000000   12.4580000000   32.4490000000
H     26.3680000000   11.4970000000   32.9290000000
H     27.1170000000   12.9970000000   32.3900000000
H     25.3070000000   12.9600000000   32.8980000000
O     26.7960000000   11.6020000000   30.0700000000
C     25.0740000000   20.6050000000   17.7210000000
H     25.8240000000   20.1080000000   18.3410000000
H     24.9330000000   20.0980000000   16.7630000000
H     25.4360000000   21.6330000000   17.6460000000
S     23.5310000000   20.6950000000   18.6570000000
C     24.2540000000   21.3780000000   20.1650000000
H     23.9150000000   20.9670000000   21.1200000000
H     25.3410000000   21.4180000000   20.0620000000
H     23.9590000000   22.4240000000   20.2790000000
O     23.3340000000   19.2690000000   19.0680000000
C     25.3530000000   12.6980000000   26.4930000000
H     25.3490000000   11.8760000000   27.2140000000
H     26.3180000000   12.9480000000   26.0450000000
H     24.8160000000   13.5420000000   26.9330000000
S     24.4260000000   12.3330000000   24.9860000000
C     23.0480000000   11.4870000000   25.7930000000
H     23.3200000000   10.4410000000   25.9550000000
H     22.8920000000   11.9570000000   26.7670000000
H     22.1410000000   11.5860000000   25.1900000000
O     25.2190000000   11.2500000000   24.3230000000
C     20.5270000000   16.8940000000   25.3550000000
H     19.7800000000   17.2090000000   24.6210000000
H     20.1170000000   16.2370000000   26.1260000000
H     21.0260000000   17.7190000000   25.8690000000
S     21.7980000000   15.8230000000   24.6460000000
C     20.6460000000   14.4810000000   24.2760000000
H     19.8550000000   14.8110000000   23.5980000000
H     21.3380000000   13.7250000000   23.8950000000
H     20.2090000000   14.0700000000   25.1900000000
O     22.5990000000   15.3070000000   25.8010000000
