312

C     25.0510000000   20.9710000000   26.6130000000
C     25.5090000000   22.0710000000   27.5860000000
C     26.9210000000   22.5700000000   27.2380000000
C     27.0440000000   23.0380000000   25.7790000000
C     26.6390000000   21.8920000000   24.8370000000
C     25.2480000000   21.3030000000   25.1240000000
H     27.1320000000   23.3830000000   27.9440000000
H     24.8440000000   22.9430000000   27.5730000000
H     25.7280000000   20.1370000000   26.8320000000
H     24.0230000000   20.6570000000   26.8270000000
H     26.3880000000   23.8900000000   25.5630000000
H     28.0620000000   23.4180000000   25.6270000000
H     26.5260000000   22.2310000000   23.8000000000
H     27.4610000000   21.1660000000   24.8360000000
H     24.4880000000   22.0230000000   24.7960000000
H     25.1100000000   20.4000000000   24.5180000000
H     27.7460000000   21.8810000000   27.4550000000
N     25.5100000000   21.5620000000   28.9560000000
H     26.0810000000   20.7740000000   29.2370000000
C     25.2310000000   22.3750000000   30.0340000000
H     25.2770000000   21.7480000000   30.9420000000
O     24.9130000000   23.5450000000   29.9160000000
C     25.8350000000   26.6590000000   27.5120000000
H     26.2520000000   26.5070000000   28.5110000000
H     26.2700000000   26.0090000000   26.7490000000
H     25.8980000000   27.7290000000   27.3010000000
S     24.1460000000   26.0260000000   27.6350000000
C     23.8180000000   26.1680000000   25.8630000000
H     24.6380000000   25.7360000000   25.2840000000
H     22.9100000000   25.6860000000   25.4930000000
H     23.7210000000   27.2300000000   25.6230000000
O     23.4660000000   27.2450000000   28.1750000000
C     21.3200000000   19.4060000000   18.7160000000
H     22.2740000000   19.8650000000   18.4420000000
H     21.0000000000   18.6700000000   17.9760000000
H     20.5250000000   20.1430000000   18.8580000000
S     21.2940000000   18.6870000000   20.3740000000
C     22.7230000000   17.6300000000   20.0510000000
H     23.5310000000   18.3660000000   20.0780000000
H     22.7620000000   17.0280000000   20.9620000000
H     22.7570000000   17.0620000000   19.1180000000
O     20.1470000000   17.7250000000   20.3430000000
C     21.8970000000   24.5920000000   34.7410000000
H     22.0780000000   23.7400000000   34.0810000000
H     21.2410000000   24.3600000000   35.5840000000
H     21.4030000000   25.4150000000   34.2180000000
S     23.3240000000   25.4340000000   35.4630000000
C     23.9730000000   23.9010000000   36.1660000000
H     24.2670000000   23.2130000000   35.3690000000
H     24.8750000000   24.1290000000   36.7400000000
H     23.2340000000   23.4770000000   36.8500000000
O     22.7700000000   25.9730000000   36.7440000000
C     30.6080000000   24.5610000000   29.5930000000
H     29.7040000000   24.2160000000   30.1030000000
H     31.2060000000   23.6600000000   29.4360000000
H     31.2110000000   25.2040000000   30.2390000000
S     30.2110000000   25.2270000000   27.9610000000
C     31.6850000000   26.2680000000   27.8720000000
H     31.8800000000   26.8250000000   28.7920000000
H     32.5280000000   25.6600000000   27.5320000000
H     31.4770000000   27.0310000000   27.1180000000
O     29.1980000000   26.2540000000   28.3620000000
C     32.2550000000   22.8150000000   32.4290000000
H     31.8520000000   23.1990000000   31.4880000000
H     32.2450000000   23.6820000000   33.0940000000
H     33.2560000000   22.4270000000   32.2250000000
S     31.1760000000   21.5910000000   33.2070000000
C     32.1710000000   21.3570000000   34.6970000000
H     31.7900000000   20.5140000000   35.2780000000
H     33.1600000000   21.0890000000   34.3140000000
H     32.2470000000   22.3260000000   35.1960000000
O     31.7560000000   20.4240000000   32.4700000000
C     31.6640000000   20.7210000000   26.5610000000
H     32.4720000000   20.7590000000   25.8260000000
H     32.0520000000   21.2140000000   27.4560000000
H     31.3460000000   19.6860000000   26.7120000000
S     30.3580000000   21.8010000000   25.9330000000
C     30.2980000000   21.1580000000   24.2460000000
H     30.1330000000   20.0800000000   24.3180000000
H     29.4200000000   21.6030000000   23.7700000000
H     31.3020000000   21.3300000000   23.8480000000
O     31.1760000000   23.0550000000   25.8980000000
C     23.3440000000   19.3300000000   33.3180000000
H     23.4710000000   19.4290000000   34.3990000000
H     22.8410000000   18.3780000000   33.1340000000
H     24.2670000000   19.2800000000   32.7340000000
S     22.4950000000   20.8270000000   32.7660000000
C     22.1790000000   20.1330000000   31.1270000000
H     21.3710000000   20.7280000000   30.6910000000
H     23.0390000000   20.1600000000   30.4540000000
H     21.8440000000   19.0930000000   31.1500000000
O     23.5610000000   21.8740000000   32.6730000000
C     28.9840000000   18.1950000000   29.5170000000
H     29.4840000000   18.2080000000   30.4890000000
H     28.0730000000   17.6030000000   29.6360000000
H     29.5790000000   17.8740000000   28.6580000000
S     28.1280000000   19.7860000000   29.4740000000
C     29.3960000000   20.7340000000   30.3450000000
H     30.2840000000   20.7230000000   29.7080000000
H     29.1260000000   21.7570000000   30.6210000000
H     29.5470000000   20.2100000000   31.2920000000
O     27.0500000000   19.5810000000   30.4930000000
C     23.4200000000   22.8050000000   19.0410000000
H     22.4580000000   23.3200000000   18.9730000000
H     24.0200000000   23.6190000000   18.6260000000
H     23.5260000000   21.8880000000   18.4550000000
S     23.7910000000   22.2930000000   20.7330000000
C     25.5020000000   22.8710000000   20.6610000000
H     25.9280000000   22.5120000000   21.6020000000
H     26.0680000000   22.4130000000   19.8460000000
H     25.5210000000   23.9540000000   20.5200000000
O     23.9400000000   20.8050000000   20.6790000000
C     27.6740000000   20.7700000000   33.9910000000
H     27.0400000000   20.6740000000   33.1060000000
H     27.6770000000   21.8230000000   34.2820000000
H     28.7010000000   20.4670000000   33.7700000000
S     27.0170000000   19.7870000000   35.3580000000
C     25.6270000000   20.8850000000   35.7190000000
H     25.1290000000   20.4350000000   36.5810000000
H     26.0190000000   21.8660000000   35.9990000000
H     24.9300000000   20.8920000000   34.8770000000
O     28.0100000000   20.1930000000   36.4010000000
C     18.0400000000   21.3410000000   20.1640000000
H     17.5230000000   22.1280000000   19.6080000000
H     18.1400000000   20.4740000000   19.5060000000
H     17.4290000000   21.0230000000   21.0120000000
S     19.6020000000   22.0380000000   20.7480000000
C     19.0830000000   23.1040000000   22.1120000000
H     18.2470000000   23.6850000000   21.7160000000
H     18.7680000000   22.4290000000   22.9120000000
H     19.8930000000   23.7260000000   22.5020000000
O     20.1450000000   22.9910000000   19.7290000000
C     25.5480000000   13.3500000000   23.5990000000
H     24.6160000000   12.7910000000   23.7200000000
H     26.0690000000   12.8900000000   22.7560000000
H     26.1450000000   13.4090000000   24.5120000000
S     25.1100000000   15.0450000000   23.1500000000
C     24.0610000000   15.5850000000   24.5190000000
H     23.8860000000   16.6590000000   24.4130000000
H     23.0790000000   15.1330000000   24.3630000000
H     24.5140000000   15.4170000000   25.5000000000
O     24.1640000000   14.9320000000   21.9950000000
C     19.0790000000   27.5000000000   23.7260000000
H     19.8360000000   28.2670000000   23.5390000000
H     18.7880000000   26.9310000000   22.8390000000
H     18.1730000000   27.8770000000   24.2080000000
S     19.8390000000   26.2920000000   24.8330000000
C     20.6460000000   27.4390000000   25.9720000000
H     21.0880000000   26.7970000000   26.7390000000
H     21.3520000000   28.0890000000   25.4470000000
H     19.8750000000   28.1130000000   26.3530000000
O     20.9790000000   25.6940000000   24.0680000000
C     26.0270000000   31.0230000000   23.9760000000
H     26.3930000000   31.0390000000   22.9460000000
H     25.4170000000   31.9200000000   24.1120000000
H     26.9000000000   30.9980000000   24.6340000000
S     24.7800000000   29.7430000000   24.2420000000
C     24.4610000000   30.1280000000   25.9790000000
H     25.3630000000   30.0230000000   26.5880000000
H     23.9800000000   31.1000000000   26.1080000000
H     23.7340000000   29.3570000000   26.2460000000
O     25.5560000000   28.4840000000   24.4760000000
C     29.1710000000   28.8060000000   25.6600000000
H     28.7130000000   29.7980000000   25.6640000000
H     28.6360000000   28.2580000000   26.4400000000
H     30.2510000000   28.9170000000   25.7840000000
S     28.9060000000   28.0840000000   24.0250000000
C     28.8120000000   26.3360000000   24.4710000000
H     28.4350000000   25.7610000000   23.6220000000
H     29.8260000000   25.9650000000   24.6370000000
H     28.0960000000   26.1450000000   25.2750000000
O     30.2240000000   28.0940000000   23.3160000000
C     26.1830000000   16.2450000000   31.3980000000
H     26.2310000000   17.2940000000   31.0930000000
H     27.0950000000   15.8120000000   31.8170000000
H     25.9290000000   15.6630000000   30.5080000000
S     24.8330000000   16.0830000000   32.5870000000
C     25.0640000000   14.2930000000   32.4860000000
H     26.0470000000   14.0610000000   32.9030000000
H     24.3040000000   13.7200000000   33.0230000000
H     25.0090000000   13.9710000000   31.4430000000
O     23.6570000000   16.3240000000   31.6920000000
C     21.9630000000   19.9710000000   23.6690000000
H     22.1660000000   19.1490000000   22.9780000000
H     21.2780000000   20.7130000000   23.2490000000
H     22.7870000000   20.6060000000   24.0040000000
S     21.1530000000   19.2920000000   25.1340000000
C     20.0490000000   18.1830000000   24.2300000000
H     20.5270000000   17.2550000000   23.9030000000
H     19.2750000000   17.9460000000   24.9640000000
H     19.6120000000   18.6780000000   23.3590000000
O     20.2370000000   20.4280000000   25.4690000000
C     25.7400000000   28.3300000000   36.4770000000
H     24.7640000000   28.0050000000   36.8470000000
H     26.5000000000   27.5820000000   36.7160000000
H     25.9990000000   29.3080000000   36.8920000000
S     25.6310000000   28.5750000000   34.6900000000
C     23.8920000000   29.0600000000   34.7550000000
H     23.3150000000   28.2550000000   35.2170000000
H     23.8090000000   30.0130000000   35.2830000000
H     23.4790000000   29.3240000000   33.7780000000
O     25.4730000000   27.2620000000   33.9870000000
C     29.8060000000   18.2140000000   21.7040000000
H     29.1630000000   18.9360000000   22.2130000000
H     30.0400000000   17.2960000000   22.2490000000
H     30.6140000000   18.7890000000   21.2440000000
S     28.7740000000   17.7890000000   20.2820000000
C     28.2750000000   19.4220000000   19.6920000000
H     28.0470000000   20.0020000000   20.5910000000
H     29.1440000000   19.8140000000   19.1590000000
H     27.3780000000   19.2640000000   19.0870000000
O     27.5320000000   17.2130000000   20.8870000000
C     28.1460000000   24.9230000000   20.3020000000
H     28.6300000000   25.3750000000   19.4320000000
H     27.5030000000   24.1570000000   19.8620000000
H     27.4620000000   25.5810000000   20.8440000000
S     29.1040000000   23.9580000000   21.4920000000
C     30.7790000000   24.4860000000   21.0650000000
H     30.8900000000   25.5580000000   21.2520000000
H     31.4820000000   23.9260000000   21.6870000000
H     30.9740000000   24.2880000000   20.0080000000
O     29.0800000000   22.5310000000   21.0410000000
C     21.4160000000   24.2690000000   31.0020000000
H     21.0820000000   23.9500000000   31.9930000000
H     20.5250000000   24.1270000000   30.3860000000
H     22.2900000000   23.7370000000   30.6170000000
S     21.6940000000   26.0530000000   31.0740000000
C     23.3500000000   26.0420000000   31.7990000000
H     23.3080000000   25.3460000000   32.6400000000
H     24.1060000000   25.7750000000   31.0560000000
H     23.4650000000   26.9970000000   32.3180000000
O     20.8200000000   26.5560000000   32.1810000000
C     28.5270000000   15.9350000000   25.5110000000
H     29.4640000000   16.0380000000   24.9580000000
H     28.7900000000   15.5110000000   26.4840000000
H     27.7840000000   15.3770000000   24.9350000000
S     27.7600000000   17.5520000000   25.7570000000
C     27.1980000000   17.7900000000   24.0560000000
H     26.6980000000   18.7620000000   24.0890000000
H     28.0290000000   17.6900000000   23.3540000000
H     26.4490000000   17.0480000000   23.7680000000
O     28.9020000000   18.5150000000   25.8630000000
C     17.1540000000   17.7770000000   28.6850000000
H     16.5870000000   17.8440000000   27.7530000000
H     18.0420000000   17.1400000000   28.6460000000
H     16.4990000000   17.4330000000   29.4900000000
S     17.6340000000   19.4560000000   29.1470000000
C     18.1380000000   19.8380000000   27.4540000000
H     18.8350000000   19.0590000000   27.1320000000
H     17.2340000000   20.0540000000   26.8790000000
H     18.7760000000   20.7250000000   27.4680000000
O     18.9600000000   19.1990000000   29.7920000000
C     18.7900000000   23.4690000000   26.0330000000
H     18.4540000000   22.4290000000   26.0610000000
H     17.9730000000   24.1850000000   25.9100000000
H     19.5250000000   23.5240000000   25.2260000000
S     19.7090000000   23.9540000000   27.5110000000
C     21.1910000000   22.9740000000   27.1830000000
H     21.0480000000   21.8960000000   27.2890000000
H     21.6730000000   23.3220000000   26.2650000000
H     21.9000000000   23.1760000000   27.9900000000
O     18.9900000000   23.1850000000   28.5750000000
C     21.6880000000   26.4590000000   20.4190000000
H     21.2610000000   25.9350000000   19.5600000000
H     20.9640000000   26.4830000000   21.2380000000
H     21.8270000000   27.4890000000   20.0800000000
S     23.2530000000   25.7970000000   21.0320000000
C     23.7000000000   26.9950000000   22.3080000000
H     23.0480000000   26.7910000000   23.1610000000
H     24.7650000000   26.8450000000   22.5050000000
H     23.6450000000   27.9860000000   21.8520000000
O     24.2430000000   26.0590000000   19.9390000000
C     34.3200000000   27.8700000000   22.3480000000
H     34.4750000000   28.6540000000   23.0940000000
H     35.1980000000   27.2290000000   22.2390000000
H     34.0450000000   28.3570000000   21.4080000000
S     33.0050000000   26.6960000000   22.7430000000
C     33.0200000000   26.7500000000   24.5490000000
H     32.7110000000   27.7440000000   24.8830000000
H     32.2790000000   25.9800000000   24.7760000000
H     34.0690000000   26.5720000000   24.8000000000
O     33.5230000000   25.3320000000   22.4070000000
C     27.8580000000   25.9760000000   32.0080000000
H     28.6500000000   26.2040000000   31.2900000000
H     26.9090000000   26.4400000000   31.7270000000
H     28.1870000000   26.1720000000   33.0320000000
S     27.5750000000   24.1940000000   31.9160000000
C     26.4310000000   24.0980000000   33.3120000000
H     25.9450000000   23.1190000000   33.2940000000
H     27.0280000000   24.3140000000   34.2020000000
H     25.7260000000   24.9320000000   33.2790000000
O     28.8250000000   23.6200000000   32.5070000000
C     21.8820000000   18.0640000000   28.3970000000
H     22.1190000000   19.1300000000   28.4380000000
H     20.9740000000   17.8990000000   27.8120000000
H     21.7470000000   17.7820000000   29.4440000000
S     23.4030000000   17.2610000000   27.8460000000
C     24.3520000000   18.0920000000   29.1400000000
H     25.4070000000   17.8090000000   29.1410000000
H     24.3460000000   19.1740000000   28.9850000000
H     23.9050000000   17.9060000000   30.1200000000
O     23.6660000000   17.9240000000   26.5300000000
C     32.0100000000   16.6580000000   26.2210000000
H     31.8480000000   15.6580000000   26.6300000000
H     32.8870000000   17.0580000000   26.7370000000
H     31.1010000000   17.2610000000   26.2980000000
S     32.6070000000   16.3830000000   24.5380000000
C     32.6750000000   18.1280000000   24.0730000000
H     32.6580000000   18.1140000000   22.9800000000
H     31.9910000000   18.8790000000   24.4760000000
H     33.6040000000   18.4970000000   24.5150000000
O     31.6490000000   16.0080000000   23.4500000000
