302

C     20.7150000000   15.8670000000   28.6350000000
C     21.8710000000   15.4430000000   27.7150000000
C     22.3110000000   16.5790000000   26.7760000000
C     22.7780000000   17.8110000000   27.5680000000
C     21.6410000000   18.2480000000   28.5070000000
C     21.0490000000   17.1520000000   29.4090000000
H     23.2050000000   16.2350000000   26.2420000000
H     22.7300000000   15.1030000000   28.3060000000
H     19.8310000000   16.0710000000   28.0180000000
H     20.4870000000   15.0690000000   29.3520000000
H     23.6150000000   17.5040000000   28.2070000000
H     22.9840000000   18.7240000000   26.9960000000
H     22.0120000000   19.0310000000   29.1790000000
H     20.8770000000   18.5950000000   27.8010000000
H     21.7980000000   16.9890000000   30.1940000000
H     20.1620000000   17.5150000000   29.9430000000
H     21.5420000000   16.7700000000   26.0180000000
N     21.4130000000   14.2810000000   26.9560000000
H     21.0130000000   14.5250000000   26.0570000000
C     21.4220000000   12.9670000000   27.3730000000
H     21.1070000000   12.2060000000   26.6370000000
O     21.9280000000   12.6080000000   28.4220000000
C     22.9870000000   22.1870000000   24.7020000000
H     23.6010000000   23.0700000000   24.8980000000
H     23.6720000000   21.3970000000   24.3860000000
H     22.3350000000   22.3640000000   23.8430000000
S     22.0010000000   21.7690000000   26.1580000000
C     21.1310000000   20.4770000000   25.2420000000
H     21.7800000000   19.7930000000   24.6900000000
H     20.5450000000   19.9410000000   25.9920000000
H     20.5960000000   21.0330000000   24.4670000000
O     20.9150000000   22.7930000000   26.2710000000
C     22.0760000000   24.0230000000   29.5810000000
H     21.2140000000   24.3740000000   29.0080000000
H     22.4360000000   24.8400000000   30.2110000000
H     22.8720000000   23.6460000000   28.9330000000
S     21.5820000000   22.6710000000   30.6730000000
C     20.1040000000   22.2690000000   29.7130000000
H     19.3390000000   23.0180000000   29.9320000000
H     20.3760000000   22.2860000000   28.6550000000
H     19.7850000000   21.3190000000   30.1500000000
O     21.0230000000   23.2740000000   31.9230000000
C     19.5350000000   19.6830000000   20.3950000000
H     19.6790000000   20.5120000000   19.6970000000
H     20.2440000000   18.8670000000   20.2340000000
H     18.5120000000   19.4130000000   20.6680000000
S     20.2270000000   20.3680000000   21.9180000000
C     19.2030000000   21.8170000000   22.2630000000
H     19.1390000000   22.3740000000   21.3250000000
H     18.2730000000   21.4120000000   22.6710000000
H     19.7010000000   22.4840000000   22.9720000000
O     21.5310000000   21.0380000000   21.6140000000
C     25.4140000000   23.7350000000   31.7590000000
H     26.1170000000   22.9090000000   31.8940000000
H     24.9110000000   23.6120000000   30.7960000000
H     25.8140000000   24.7510000000   31.8170000000
S     24.0950000000   23.3650000000   32.9380000000
C     25.0390000000   23.3640000000   34.4790000000
H     25.4320000000   22.3440000000   34.4690000000
H     25.7220000000   24.2160000000   34.5300000000
H     24.3720000000   23.4770000000   35.3370000000
O     23.9300000000   21.8990000000   32.6860000000
C     24.8370000000    9.5880000000   32.3030000000
H     24.5280000000    9.6340000000   33.3500000000
H     25.3410000000    8.6430000000   32.0880000000
H     25.5440000000   10.3850000000   32.0570000000
S     23.3840000000    9.7680000000   31.2440000000
C     22.5540000000   11.0290000000   32.2390000000
H     23.2380000000   11.7740000000   32.6540000000
H     21.8870000000   11.5030000000   31.5150000000
H     21.8620000000   10.6180000000   32.9780000000
O     22.3890000000    8.6750000000   31.4800000000
C     15.6450000000   17.1860000000   24.1180000000
H     14.7260000000   17.1850000000   24.7100000000
H     15.5480000000   16.5580000000   23.2290000000
H     16.3760000000   16.7820000000   24.8230000000
S     15.9340000000   18.9080000000   23.6520000000
C     14.8580000000   18.8220000000   22.2040000000
H     15.2250000000   17.9810000000   21.6100000000
H     13.8610000000   18.6500000000   22.6190000000
H     14.9210000000   19.6710000000   21.5170000000
O     17.2690000000   18.8960000000   22.9740000000
C     21.5780000000    9.1680000000   27.9910000000
H     20.9270000000    9.9630000000   27.6180000000
H     21.4640000000    8.9760000000   29.0610000000
H     22.6500000000    9.2290000000   27.7860000000
S     20.9860000000    7.6980000000   27.1220000000
C     19.5530000000    7.5040000000   28.2050000000
H     19.0220000000    8.4540000000   28.1080000000
H     18.9240000000    6.6980000000   27.8170000000
H     19.8500000000    7.4880000000   29.2570000000
O     21.8070000000    6.4970000000   27.4770000000
C     28.8470000000   20.7980000000   30.4340000000
H     29.7550000000   20.9770000000   31.0150000000
H     29.0060000000   21.0290000000   29.3780000000
H     28.0100000000   21.4040000000   30.7920000000
S     28.5390000000   19.0190000000   30.5100000000
C     30.2280000000   18.4970000000   30.1370000000
H     30.4750000000   17.4340000000   30.0820000000
H     30.5160000000   19.0570000000   29.2430000000
H     30.7860000000   18.8420000000   31.0110000000
O     27.6360000000   18.7170000000   29.3550000000
C     13.9320000000   11.8280000000   30.4870000000
H     14.0730000000   12.2270000000   31.4950000000
H     12.9270000000   11.4710000000   30.2490000000
H     14.5520000000   10.9410000000   30.3330000000
S     14.6110000000   12.9180000000   29.2160000000
C     13.6160000000   14.4060000000   29.4610000000
H     13.9630000000   14.9500000000   30.3440000000
H     13.7230000000   14.9440000000   28.5160000000
H     12.5470000000   14.2110000000   29.5750000000
O     14.0890000000   12.2700000000   27.9710000000
C     21.6600000000   14.7780000000   32.4760000000
H     22.7100000000   14.8920000000   32.7590000000
H     21.5190000000   14.1700000000   31.5790000000
H     21.3880000000   15.8120000000   32.2470000000
S     20.6940000000   14.0280000000   33.8060000000
C     21.2120000000   15.3970000000   34.8660000000
H     20.9840000000   16.3930000000   34.4760000000
H     20.4950000000   15.2460000000   35.6770000000
H     22.2360000000   15.3360000000   35.2430000000
O     21.5850000000   12.9460000000   34.3310000000
C     21.1460000000   14.2530000000   18.1920000000
H     21.7180000000   13.3730000000   17.8880000000
H     20.4870000000   14.0680000000   19.0450000000
H     20.6460000000   14.8010000000   17.3890000000
S     22.3230000000   15.3260000000   19.0450000000
C     23.0320000000   13.9790000000   20.0190000000
H     23.5010000000   13.2910000000   19.3110000000
H     23.6940000000   14.4460000000   20.7520000000
H     22.2300000000   13.4810000000   20.5700000000
O     21.5090000000   16.1350000000   20.0070000000
C     16.6940000000   23.5260000000   27.3800000000
H     17.7240000000   23.3740000000   27.7110000000
H     16.5390000000   24.6000000000   27.2450000000
H     15.8790000000   23.1920000000   28.0260000000
S     16.4450000000   22.6760000000   25.8050000000
C     17.7420000000   23.5190000000   24.8710000000
H     17.6620000000   23.1570000000   23.8430000000
H     17.4820000000   24.5690000000   24.7120000000
H     18.7440000000   23.3540000000   25.2760000000
O     15.2260000000   23.3400000000   25.2440000000
C     17.0900000000   20.2590000000   33.6430000000
H     17.2880000000   20.5140000000   34.6870000000
H     16.4100000000   19.4040000000   33.6780000000
H     17.9460000000   19.8650000000   33.0890000000
S     16.2810000000   21.5890000000   32.7260000000
C     17.2960000000   22.8430000000   33.5410000000
H     17.2780000000   22.5370000000   34.5900000000
H     18.3350000000   22.9030000000   33.2050000000
H     16.8360000000   23.8160000000   33.3530000000
O     15.0250000000   21.8700000000   33.4900000000
C     25.0970000000   19.2630000000   31.5320000000
H     24.2050000000   19.6700000000   31.0510000000
H     25.7430000000   20.0500000000   31.9300000000
H     25.6150000000   18.6190000000   30.8160000000
S     24.5700000000   18.1170000000   32.8260000000
C     26.1680000000   17.4700000000   33.3690000000
H     25.9360000000   16.6320000000   34.0310000000
H     26.6460000000   17.0330000000   32.4880000000
H     26.7920000000   18.2090000000   33.8790000000
O     23.8730000000   17.0930000000   31.9850000000
C     17.4830000000   16.0320000000   31.9350000000
H     18.4640000000   15.5540000000   31.9960000000
H     17.2460000000   16.2670000000   30.8940000000
H     17.4820000000   16.9350000000   32.5510000000
S     16.2260000000   14.8970000000   32.5660000000
C     17.0730000000   14.3580000000   34.0680000000
H     16.4290000000   13.6020000000   34.5250000000
H     17.9850000000   13.8990000000   33.6800000000
H     17.2880000000   15.2330000000   34.6870000000
O     16.2220000000   13.7040000000   31.6620000000
C     27.8990000000   17.2550000000   26.2770000000
H     26.9240000000   17.1970000000   25.7860000000
H     28.0380000000   16.2540000000   26.6930000000
H     27.8450000000   17.9710000000   27.1010000000
S     29.2230000000   17.7220000000   25.1390000000
C     30.3470000000   18.4210000000   26.3680000000
H     30.3390000000   17.6740000000   27.1650000000
H     31.3050000000   18.5980000000   25.8710000000
H     29.9220000000   19.3500000000   26.7560000000
O     28.6490000000   18.8650000000   24.3600000000
C     25.6460000000   17.8200000000   22.8500000000
H     26.2010000000   18.1380000000   21.9640000000
H     25.6300000000   18.6360000000   23.5770000000
H     26.0880000000   16.8860000000   23.2070000000
S     23.9050000000   17.4320000000   22.5570000000
C     23.6430000000   18.8460000000   21.4630000000
H     22.5840000000   19.0250000000   21.2600000000
H     24.0880000000   19.7580000000   21.8680000000
H     24.2090000000   18.7160000000   20.5370000000
O     23.1930000000   17.7620000000   23.8320000000
C     16.1430000000   10.3660000000   25.3460000000
H     15.9890000000   10.9480000000   24.4340000000
H     16.3760000000    9.3220000000   25.1200000000
H     15.3130000000   10.4380000000   26.0550000000
S     17.6840000000   10.9820000000   26.0610000000
C     17.2900000000   12.7240000000   25.7910000000
H     16.5310000000   12.9790000000   26.5350000000
H     18.2180000000   13.3010000000   25.7590000000
H     16.8750000000   12.8660000000   24.7900000000
O     18.6700000000   10.8360000000   24.9440000000
C     21.7540000000    9.4850000000   23.9780000000
H     22.6250000000    8.8390000000   23.8390000000
H     21.8850000000    9.9870000000   24.9400000000
H     20.8260000000    8.9330000000   23.8080000000
S     21.8180000000   10.8460000000   22.7910000000
C     22.3380000000    9.9360000000   21.3190000000
H     23.1470000000    9.2100000000   21.4370000000
H     21.4640000000    9.4370000000   20.8920000000
H     22.7600000000   10.7070000000   20.6700000000
O     23.0820000000   11.5280000000   23.2130000000
C     18.5030000000   12.5130000000   29.4610000000
H     17.7580000000   12.9010000000   28.7610000000
H     18.5810000000   13.3160000000   30.1980000000
H     19.4230000000   12.3710000000   28.8890000000
S     17.8270000000   11.0000000000   30.1830000000
C     19.3260000000   10.5110000000   31.0650000000
H     20.1030000000   10.6000000000   30.3020000000
H     19.5430000000   11.1260000000   31.9420000000
H     19.1660000000    9.4620000000   31.3300000000
O     17.6940000000   10.0130000000   29.0660000000
C     17.8320000000   19.0030000000   27.7120000000
H     17.3930000000   19.2880000000   26.7530000000
H     18.4850000000   19.8280000000   28.0070000000
H     18.3630000000   18.0860000000   27.4450000000
S     16.6630000000   18.6240000000   29.0370000000
C     15.7800000000   20.1980000000   28.9540000000
H     15.1430000000   20.3130000000   29.8340000000
H     16.4430000000   21.0610000000   29.0550000000
H     15.2370000000   20.3050000000   28.0110000000
O     17.5890000000   18.6470000000   30.2140000000
C     27.2420000000   20.6160000000   26.7070000000
H     27.4920000000   20.6780000000   25.6450000000
H     28.0650000000   20.4550000000   27.4070000000
H     26.4010000000   19.9280000000   26.8300000000
S     26.7320000000   22.3270000000   26.9830000000
C     25.7910000000   22.0430000000   28.4990000000
H     24.9700000000   21.3580000000   28.2710000000
H     26.3950000000   21.5940000000   29.2920000000
H     25.3800000000   22.9590000000   28.9320000000
O     25.7010000000   22.7020000000   25.9640000000
C     16.8390000000   14.3980000000   22.6160000000
H     15.9280000000   14.1260000000   23.1560000000
H     17.5620000000   13.5800000000   22.5700000000
H     17.3200000000   15.2960000000   23.0120000000
S     16.3800000000   14.7550000000   20.9050000000
C     17.6150000000   16.0360000000   20.5910000000
H     17.5910000000   16.8700000000   21.2970000000
H     18.6420000000   15.6630000000   20.5690000000
H     17.4240000000   16.4650000000   19.6040000000
O     15.0800000000   15.4940000000   20.9770000000
C     20.9250000000   20.9110000000   34.4980000000
H     21.3810000000   21.4660000000   33.6740000000
H     19.9530000000   21.2880000000   34.8270000000
H     21.6180000000   20.9880000000   35.3400000000
S     20.8050000000   19.1650000000   34.0470000000
C     20.2630000000   19.4670000000   32.3500000000
H     21.1860000000   19.4750000000   31.7650000000
H     19.6640000000   18.5910000000   32.0860000000
H     19.6710000000   20.3760000000   32.2160000000
O     19.6170000000   18.5940000000   34.7580000000
C     26.7070000000   15.6820000000   29.7360000000
H     26.1590000000   16.3890000000   30.3630000000
H     27.6980000000   15.5650000000   30.1810000000
H     26.8510000000   16.1600000000   28.7630000000
S     25.6560000000   14.2300000000   29.5010000000
C     25.5210000000   13.8930000000   31.2710000000
H     24.9560000000   12.9720000000   31.4360000000
H     26.4440000000   13.8630000000   31.8570000000
H     24.9170000000   14.7090000000   31.6760000000
O     26.5480000000   13.1090000000   29.0690000000
C     28.2460000000    9.3290000000   28.9020000000
H     27.7510000000    8.3770000000   29.1100000000
H     29.3360000000    9.2570000000   28.8880000000
H     28.0150000000   10.0320000000   29.7060000000
S     27.6710000000   10.1150000000   27.3800000000
C     25.9150000000    9.7650000000   27.6220000000
H     25.4170000000   10.4650000000   28.2980000000
H     25.3760000000    9.9360000000   26.6870000000
H     25.7070000000    8.7590000000   27.9950000000
O     28.0290000000    9.0700000000   26.3700000000
C     25.3690000000   12.8790000000   25.5330000000
H     25.6450000000   13.0970000000   26.5680000000
H     24.3030000000   12.6930000000   25.3750000000
H     25.9680000000   12.0000000000   25.2830000000
S     25.7870000000   14.2880000000   24.4820000000
C     25.7060000000   13.5540000000   22.8320000000
H     24.7310000000   13.2840000000   22.4200000000
H     26.0700000000   14.3900000000   22.2290000000
H     26.4380000000   12.7430000000   22.8470000000
O     27.2580000000   14.2970000000   24.7610000000
C     22.0100000000   14.6280000000   23.5060000000
H     22.4150000000   15.4990000000   24.0270000000
H     22.0020000000   13.7610000000   24.1720000000
H     22.3980000000   14.3920000000   22.5120000000
S     20.2420000000   14.9600000000   23.3350000000
C     20.4080000000   16.7360000000   23.0430000000
H     21.0530000000   16.9610000000   22.1900000000
H     19.4160000000   17.1610000000   22.8690000000
H     20.7870000000   17.2840000000   23.9090000000
O     19.8200000000   14.8600000000   24.7680000000
